
---------- Begin Simulation Statistics ----------
simSeconds                                   0.009349                       # Number of seconds simulated (Second)
simTicks                                   9348672249                       # Number of ticks simulated (Tick)
finalTick                                  9348672249                       # Number of ticks from beginning of simulation (restored from checkpoints and never reset) (Tick)
simFreq                                  1000000000000                       # The number of ticks per simulated second ((Tick/Second))
hostSeconds                                    217.66                       # Real time elapsed on the host (Second)
hostTickRate                                 42949992                       # The number of ticks simulated per host second (ticks/s) ((Tick/Second))
hostMemory                                     749160                       # Number of bytes of host memory used (Byte)
simInsts                                     54404560                       # Number of instructions simulated (Count)
simOps                                       89387233                       # Number of ops (including micro ops) simulated (Count)
hostInstRate                                   249947                       # Simulator instruction rate (inst/s) ((Count/Second))
hostOpRate                                     410665                       # Simulator op (including micro ops) rate (op/s) ((Count/Second))
system.clk_domain.clock                          1000                       # Clock period in ticks (Tick)
system.cpu0.numCycles                        26024646                       # Number of cpu cycles simulated (Cycle)
system.cpu0.numWorkItemsStarted                     0                       # Number of work items this cpu started (Count)
system.cpu0.numWorkItemsCompleted                   0                       # Number of work items this cpu completed (Count)
system.cpu0.instsAdded                       67228084                       # Number of instructions added to the IQ (excludes non-spec) (Count)
system.cpu0.nonSpecInstsAdded                    1281                       # Number of non-speculative instructions added to the IQ (Count)
system.cpu0.instsIssued                      67089950                       # Number of instructions issued (Count)
system.cpu0.squashedInstsIssued                  1362                       # Number of squashed instructions issued (Count)
system.cpu0.squashedInstsExamined              783385                       # Number of squashed instructions iterated over during squash; mainly for profiling (Count)
system.cpu0.squashedOperandsExamined           771596                       # Number of squashed operands that are examined and possibly removed from graph (Count)
system.cpu0.squashedNonSpecRemoved                588                       # Number of squashed non-spec instructions that were removed (Count)
system.cpu0.numIssuedDist::samples           25855215                       # Number of insts issued each cycle (Count)
system.cpu0.numIssuedDist::mean              2.594832                       # Number of insts issued each cycle (Count)
system.cpu0.numIssuedDist::stdev             2.554490                       # Number of insts issued each cycle (Count)
system.cpu0.numIssuedDist::underflows               0      0.00%      0.00% # Number of insts issued each cycle (Count)
system.cpu0.numIssuedDist::0                  9574930     37.03%     37.03% # Number of insts issued each cycle (Count)
system.cpu0.numIssuedDist::1                  1813608      7.01%     44.05% # Number of insts issued each cycle (Count)
system.cpu0.numIssuedDist::2                  2202888      8.52%     52.57% # Number of insts issued each cycle (Count)
system.cpu0.numIssuedDist::3                  2922937     11.31%     63.87% # Number of insts issued each cycle (Count)
system.cpu0.numIssuedDist::4                  2296524      8.88%     72.75% # Number of insts issued each cycle (Count)
system.cpu0.numIssuedDist::5                  2657567     10.28%     83.03% # Number of insts issued each cycle (Count)
system.cpu0.numIssuedDist::6                  1964680      7.60%     90.63% # Number of insts issued each cycle (Count)
system.cpu0.numIssuedDist::7                  1536904      5.94%     96.58% # Number of insts issued each cycle (Count)
system.cpu0.numIssuedDist::8                   885177      3.42%    100.00% # Number of insts issued each cycle (Count)
system.cpu0.numIssuedDist::overflows                0      0.00%    100.00% # Number of insts issued each cycle (Count)
system.cpu0.numIssuedDist::min_value                0                       # Number of insts issued each cycle (Count)
system.cpu0.numIssuedDist::max_value                8                       # Number of insts issued each cycle (Count)
system.cpu0.numIssuedDist::total             25855215                       # Number of insts issued each cycle (Count)
system.cpu0.statFuBusy::No_OpClass                  0      0.00%      0.00% # attempts to use FU when none available (Count)
system.cpu0.statFuBusy::IntAlu                  96674     63.39%     63.39% # attempts to use FU when none available (Count)
system.cpu0.statFuBusy::IntMult                     0      0.00%     63.39% # attempts to use FU when none available (Count)
system.cpu0.statFuBusy::IntDiv                      0      0.00%     63.39% # attempts to use FU when none available (Count)
system.cpu0.statFuBusy::FloatAdd                    0      0.00%     63.39% # attempts to use FU when none available (Count)
system.cpu0.statFuBusy::FloatCmp                    0      0.00%     63.39% # attempts to use FU when none available (Count)
system.cpu0.statFuBusy::FloatCvt                    0      0.00%     63.39% # attempts to use FU when none available (Count)
system.cpu0.statFuBusy::FloatMult                   0      0.00%     63.39% # attempts to use FU when none available (Count)
system.cpu0.statFuBusy::FloatMultAcc                0      0.00%     63.39% # attempts to use FU when none available (Count)
system.cpu0.statFuBusy::FloatDiv                    0      0.00%     63.39% # attempts to use FU when none available (Count)
system.cpu0.statFuBusy::FloatMisc                   0      0.00%     63.39% # attempts to use FU when none available (Count)
system.cpu0.statFuBusy::FloatSqrt                   0      0.00%     63.39% # attempts to use FU when none available (Count)
system.cpu0.statFuBusy::SimdAdd                     0      0.00%     63.39% # attempts to use FU when none available (Count)
system.cpu0.statFuBusy::SimdAddAcc                  0      0.00%     63.39% # attempts to use FU when none available (Count)
system.cpu0.statFuBusy::SimdAlu                 14083      9.23%     72.63% # attempts to use FU when none available (Count)
system.cpu0.statFuBusy::SimdCmp                     0      0.00%     72.63% # attempts to use FU when none available (Count)
system.cpu0.statFuBusy::SimdCvt                    38      0.02%     72.65% # attempts to use FU when none available (Count)
system.cpu0.statFuBusy::SimdMisc                  126      0.08%     72.74% # attempts to use FU when none available (Count)
system.cpu0.statFuBusy::SimdMult                    0      0.00%     72.74% # attempts to use FU when none available (Count)
system.cpu0.statFuBusy::SimdMultAcc                 0      0.00%     72.74% # attempts to use FU when none available (Count)
system.cpu0.statFuBusy::SimdShift                   0      0.00%     72.74% # attempts to use FU when none available (Count)
system.cpu0.statFuBusy::SimdShiftAcc                0      0.00%     72.74% # attempts to use FU when none available (Count)
system.cpu0.statFuBusy::SimdDiv                     0      0.00%     72.74% # attempts to use FU when none available (Count)
system.cpu0.statFuBusy::SimdSqrt                    0      0.00%     72.74% # attempts to use FU when none available (Count)
system.cpu0.statFuBusy::SimdFloatAdd              362      0.24%     72.97% # attempts to use FU when none available (Count)
system.cpu0.statFuBusy::SimdFloatAlu                0      0.00%     72.97% # attempts to use FU when none available (Count)
system.cpu0.statFuBusy::SimdFloatCmp                0      0.00%     72.97% # attempts to use FU when none available (Count)
system.cpu0.statFuBusy::SimdFloatCvt                5      0.00%     72.98% # attempts to use FU when none available (Count)
system.cpu0.statFuBusy::SimdFloatDiv                0      0.00%     72.98% # attempts to use FU when none available (Count)
system.cpu0.statFuBusy::SimdFloatMisc               0      0.00%     72.98% # attempts to use FU when none available (Count)
system.cpu0.statFuBusy::SimdFloatMult           25039     16.42%     89.39% # attempts to use FU when none available (Count)
system.cpu0.statFuBusy::SimdFloatMultAcc            0      0.00%     89.39% # attempts to use FU when none available (Count)
system.cpu0.statFuBusy::SimdFloatSqrt               0      0.00%     89.39% # attempts to use FU when none available (Count)
system.cpu0.statFuBusy::SimdReduceAdd               0      0.00%     89.39% # attempts to use FU when none available (Count)
system.cpu0.statFuBusy::SimdReduceAlu               0      0.00%     89.39% # attempts to use FU when none available (Count)
system.cpu0.statFuBusy::SimdReduceCmp               0      0.00%     89.39% # attempts to use FU when none available (Count)
system.cpu0.statFuBusy::SimdFloatReduceAdd            0      0.00%     89.39% # attempts to use FU when none available (Count)
system.cpu0.statFuBusy::SimdFloatReduceCmp            0      0.00%     89.39% # attempts to use FU when none available (Count)
system.cpu0.statFuBusy::SimdAes                     0      0.00%     89.39% # attempts to use FU when none available (Count)
system.cpu0.statFuBusy::SimdAesMix                  0      0.00%     89.39% # attempts to use FU when none available (Count)
system.cpu0.statFuBusy::SimdSha1Hash                0      0.00%     89.39% # attempts to use FU when none available (Count)
system.cpu0.statFuBusy::SimdSha1Hash2               0      0.00%     89.39% # attempts to use FU when none available (Count)
system.cpu0.statFuBusy::SimdSha256Hash              0      0.00%     89.39% # attempts to use FU when none available (Count)
system.cpu0.statFuBusy::SimdSha256Hash2             0      0.00%     89.39% # attempts to use FU when none available (Count)
system.cpu0.statFuBusy::SimdShaSigma2               0      0.00%     89.39% # attempts to use FU when none available (Count)
system.cpu0.statFuBusy::SimdShaSigma3               0      0.00%     89.39% # attempts to use FU when none available (Count)
system.cpu0.statFuBusy::SimdPredAlu                 0      0.00%     89.39% # attempts to use FU when none available (Count)
system.cpu0.statFuBusy::MemRead                   421      0.28%     89.67% # attempts to use FU when none available (Count)
system.cpu0.statFuBusy::MemWrite                  613      0.40%     90.07% # attempts to use FU when none available (Count)
system.cpu0.statFuBusy::FloatMemRead             3166      2.08%     92.15% # attempts to use FU when none available (Count)
system.cpu0.statFuBusy::FloatMemWrite           11973      7.85%    100.00% # attempts to use FU when none available (Count)
system.cpu0.statFuBusy::IprAccess                   0      0.00%    100.00% # attempts to use FU when none available (Count)
system.cpu0.statFuBusy::InstPrefetch                0      0.00%    100.00% # attempts to use FU when none available (Count)
system.cpu0.statIssuedInstType_0::No_OpClass       141347      0.21%      0.21% # Number of instructions issued per FU type, per thread (Count)
system.cpu0.statIssuedInstType_0::IntAlu     40211960     59.94%     60.15% # Number of instructions issued per FU type, per thread (Count)
system.cpu0.statIssuedInstType_0::IntMult       132373      0.20%     60.35% # Number of instructions issued per FU type, per thread (Count)
system.cpu0.statIssuedInstType_0::IntDiv        14692      0.02%     60.37% # Number of instructions issued per FU type, per thread (Count)
system.cpu0.statIssuedInstType_0::FloatAdd      3903640      5.82%     66.19% # Number of instructions issued per FU type, per thread (Count)
system.cpu0.statIssuedInstType_0::FloatCmp            0      0.00%     66.19% # Number of instructions issued per FU type, per thread (Count)
system.cpu0.statIssuedInstType_0::FloatCvt            0      0.00%     66.19% # Number of instructions issued per FU type, per thread (Count)
system.cpu0.statIssuedInstType_0::FloatMult            0      0.00%     66.19% # Number of instructions issued per FU type, per thread (Count)
system.cpu0.statIssuedInstType_0::FloatMultAcc            0      0.00%     66.19% # Number of instructions issued per FU type, per thread (Count)
system.cpu0.statIssuedInstType_0::FloatDiv            0      0.00%     66.19% # Number of instructions issued per FU type, per thread (Count)
system.cpu0.statIssuedInstType_0::FloatMisc            0      0.00%     66.19% # Number of instructions issued per FU type, per thread (Count)
system.cpu0.statIssuedInstType_0::FloatSqrt            0      0.00%     66.19% # Number of instructions issued per FU type, per thread (Count)
system.cpu0.statIssuedInstType_0::SimdAdd          378      0.00%     66.19% # Number of instructions issued per FU type, per thread (Count)
system.cpu0.statIssuedInstType_0::SimdAddAcc            0      0.00%     66.19% # Number of instructions issued per FU type, per thread (Count)
system.cpu0.statIssuedInstType_0::SimdAlu      1789452      2.67%     68.85% # Number of instructions issued per FU type, per thread (Count)
system.cpu0.statIssuedInstType_0::SimdCmp            0      0.00%     68.85% # Number of instructions issued per FU type, per thread (Count)
system.cpu0.statIssuedInstType_0::SimdCvt          621      0.00%     68.85% # Number of instructions issued per FU type, per thread (Count)
system.cpu0.statIssuedInstType_0::SimdMisc       347503      0.52%     69.37% # Number of instructions issued per FU type, per thread (Count)
system.cpu0.statIssuedInstType_0::SimdMult            0      0.00%     69.37% # Number of instructions issued per FU type, per thread (Count)
system.cpu0.statIssuedInstType_0::SimdMultAcc            0      0.00%     69.37% # Number of instructions issued per FU type, per thread (Count)
system.cpu0.statIssuedInstType_0::SimdShift          188      0.00%     69.37% # Number of instructions issued per FU type, per thread (Count)
system.cpu0.statIssuedInstType_0::SimdShiftAcc            0      0.00%     69.37% # Number of instructions issued per FU type, per thread (Count)
system.cpu0.statIssuedInstType_0::SimdDiv            0      0.00%     69.37% # Number of instructions issued per FU type, per thread (Count)
system.cpu0.statIssuedInstType_0::SimdSqrt            0      0.00%     69.37% # Number of instructions issued per FU type, per thread (Count)
system.cpu0.statIssuedInstType_0::SimdFloatAdd      4084275      6.09%     75.46% # Number of instructions issued per FU type, per thread (Count)
system.cpu0.statIssuedInstType_0::SimdFloatAlu            0      0.00%     75.46% # Number of instructions issued per FU type, per thread (Count)
system.cpu0.statIssuedInstType_0::SimdFloatCmp            0      0.00%     75.46% # Number of instructions issued per FU type, per thread (Count)
system.cpu0.statIssuedInstType_0::SimdFloatCvt       427751      0.64%     76.10% # Number of instructions issued per FU type, per thread (Count)
system.cpu0.statIssuedInstType_0::SimdFloatDiv        66054      0.10%     76.20% # Number of instructions issued per FU type, per thread (Count)
system.cpu0.statIssuedInstType_0::SimdFloatMisc            0      0.00%     76.20% # Number of instructions issued per FU type, per thread (Count)
system.cpu0.statIssuedInstType_0::SimdFloatMult      3225674      4.81%     81.00% # Number of instructions issued per FU type, per thread (Count)
system.cpu0.statIssuedInstType_0::SimdFloatMultAcc            0      0.00%     81.00% # Number of instructions issued per FU type, per thread (Count)
system.cpu0.statIssuedInstType_0::SimdFloatSqrt            0      0.00%     81.00% # Number of instructions issued per FU type, per thread (Count)
system.cpu0.statIssuedInstType_0::SimdReduceAdd            0      0.00%     81.00% # Number of instructions issued per FU type, per thread (Count)
system.cpu0.statIssuedInstType_0::SimdReduceAlu            0      0.00%     81.00% # Number of instructions issued per FU type, per thread (Count)
system.cpu0.statIssuedInstType_0::SimdReduceCmp            0      0.00%     81.00% # Number of instructions issued per FU type, per thread (Count)
system.cpu0.statIssuedInstType_0::SimdFloatReduceAdd            0      0.00%     81.00% # Number of instructions issued per FU type, per thread (Count)
system.cpu0.statIssuedInstType_0::SimdFloatReduceCmp            0      0.00%     81.00% # Number of instructions issued per FU type, per thread (Count)
system.cpu0.statIssuedInstType_0::SimdAes            0      0.00%     81.00% # Number of instructions issued per FU type, per thread (Count)
system.cpu0.statIssuedInstType_0::SimdAesMix            0      0.00%     81.00% # Number of instructions issued per FU type, per thread (Count)
system.cpu0.statIssuedInstType_0::SimdSha1Hash            0      0.00%     81.00% # Number of instructions issued per FU type, per thread (Count)
system.cpu0.statIssuedInstType_0::SimdSha1Hash2            0      0.00%     81.00% # Number of instructions issued per FU type, per thread (Count)
system.cpu0.statIssuedInstType_0::SimdSha256Hash            0      0.00%     81.00% # Number of instructions issued per FU type, per thread (Count)
system.cpu0.statIssuedInstType_0::SimdSha256Hash2            0      0.00%     81.00% # Number of instructions issued per FU type, per thread (Count)
system.cpu0.statIssuedInstType_0::SimdShaSigma2            0      0.00%     81.00% # Number of instructions issued per FU type, per thread (Count)
system.cpu0.statIssuedInstType_0::SimdShaSigma3            0      0.00%     81.00% # Number of instructions issued per FU type, per thread (Count)
system.cpu0.statIssuedInstType_0::SimdPredAlu            0      0.00%     81.00% # Number of instructions issued per FU type, per thread (Count)
system.cpu0.statIssuedInstType_0::MemRead      3073636      4.58%     85.59% # Number of instructions issued per FU type, per thread (Count)
system.cpu0.statIssuedInstType_0::MemWrite      1991555      2.97%     88.55% # Number of instructions issued per FU type, per thread (Count)
system.cpu0.statIssuedInstType_0::FloatMemRead      5070443      7.56%     96.11% # Number of instructions issued per FU type, per thread (Count)
system.cpu0.statIssuedInstType_0::FloatMemWrite      2608408      3.89%    100.00% # Number of instructions issued per FU type, per thread (Count)
system.cpu0.statIssuedInstType_0::IprAccess            0      0.00%    100.00% # Number of instructions issued per FU type, per thread (Count)
system.cpu0.statIssuedInstType_0::InstPrefetch            0      0.00%    100.00% # Number of instructions issued per FU type, per thread (Count)
system.cpu0.statIssuedInstType_0::total      67089950                       # Number of instructions issued per FU type, per thread (Count)
system.cpu0.issueRate                        2.577939                       # Inst issue rate ((Count/Cycle))
system.cpu0.fuBusy                             152500                       # FU busy when requested (Count)
system.cpu0.fuBusyRate                       0.002273                       # FU busy rate (busy events/executed inst) ((Count/Count))
system.cpu0.intInstQueueReads               104780786                       # Number of integer instruction queue reads (Count)
system.cpu0.intInstQueueWrites               39971528                       # Number of integer instruction queue writes (Count)
system.cpu0.intInstQueueWakeupAccesses       39383313                       # Number of integer instruction queue wakeup accesses (Count)
system.cpu0.fpInstQueueReads                 55408191                       # Number of floating instruction queue reads (Count)
system.cpu0.fpInstQueueWrites                28041516                       # Number of floating instruction queue writes (Count)
system.cpu0.fpInstQueueWakeupAccesses        27607719                       # Number of floating instruction queue wakeup accesses (Count)
system.cpu0.vecInstQueueReads                       0                       # Number of vector instruction queue reads (Count)
system.cpu0.vecInstQueueWrites                      0                       # Number of vector instruction queue writes (Count)
system.cpu0.vecInstQueueWakeupAccesses              0                       # Number of vector instruction queue wakeup accesses (Count)
system.cpu0.intAluAccesses                   39361946                       # Number of integer alu accesses (Count)
system.cpu0.fpAluAccesses                    27739157                       # Number of floating point alu accesses (Count)
system.cpu0.vecAluAccesses                          0                       # Number of vector alu accesses (Count)
system.cpu0.numInsts                         67018394                       # Number of executed instructions (Count)
system.cpu0.numLoadInsts                      8133576                       # Number of load instructions executed (Count)
system.cpu0.numSquashedInsts                    71556                       # Number of squashed instructions skipped in execute (Count)
system.cpu0.numSwp                                  0                       # Number of swp insts executed (Count)
system.cpu0.numNop                                  0                       # Number of nop insts executed (Count)
system.cpu0.numRefs                          12725090                       # Number of memory reference insts executed (Count)
system.cpu0.numBranches                       3880465                       # Number of branches executed (Count)
system.cpu0.numStoreInsts                     4591514                       # Number of stores executed (Count)
system.cpu0.numRate                          2.575189                       # Inst execution rate ((Count/Cycle))
system.cpu0.timesIdled                            972                       # Number of times that the entire CPU went into an idle state and unscheduled itself (Count)
system.cpu0.idleCycles                         169431                       # Total number of cycles that the CPU has spent unscheduled due to idling (Cycle)
system.cpu0.quiesceCycles                      162112                       # Total number of cycles that CPU has spent quiesced or waiting for an interrupt (Cycle)
system.cpu0.committedInsts                   39456566                       # Number of Instructions Simulated (Count)
system.cpu0.committedOps                     66445974                       # Number of Ops (including micro ops) Simulated (Count)
system.cpu0.cpi                              0.659577                       # CPI: Cycles Per Instruction ((Cycle/Count))
system.cpu0.totalCpi                         0.659577                       # CPI: Total CPI of All Threads ((Cycle/Count))
system.cpu0.ipc                              1.516123                       # IPC: Instructions Per Cycle ((Count/Cycle))
system.cpu0.totalIpc                         1.516123                       # IPC: Total IPC of All Threads ((Count/Cycle))
system.cpu0.intRegfileReads                  63113953                       # Number of integer regfile reads (Count)
system.cpu0.intRegfileWrites                 31405050                       # Number of integer regfile writes (Count)
system.cpu0.fpRegfileReads                   41782276                       # Number of floating regfile reads (Count)
system.cpu0.fpRegfileWrites                  24509536                       # Number of floating regfile writes (Count)
system.cpu0.ccRegfileReads                   19915427                       # number of cc regfile reads (Count)
system.cpu0.ccRegfileWrites                  19549574                       # number of cc regfile writes (Count)
system.cpu0.miscRegfileReads                 21961080                       # number of misc regfile reads (Count)
system.cpu0.MemDepUnit__0.insertedLoads       8153460                       # Number of loads inserted to the mem dependence unit. (Count)
system.cpu0.MemDepUnit__0.insertedStores      4620181                       # Number of stores inserted to the mem dependence unit. (Count)
system.cpu0.MemDepUnit__0.conflictingLoads       637495                       # Number of conflicting loads. (Count)
system.cpu0.MemDepUnit__0.conflictingStores       156302                       # Number of conflicting stores. (Count)
system.cpu0.MemDepUnit__1.insertedLoads             0                       # Number of loads inserted to the mem dependence unit. (Count)
system.cpu0.MemDepUnit__1.insertedStores            0                       # Number of stores inserted to the mem dependence unit. (Count)
system.cpu0.MemDepUnit__1.conflictingLoads            0                       # Number of conflicting loads. (Count)
system.cpu0.MemDepUnit__1.conflictingStores            0                       # Number of conflicting stores. (Count)
system.cpu0.MemDepUnit__2.insertedLoads             0                       # Number of loads inserted to the mem dependence unit. (Count)
system.cpu0.MemDepUnit__2.insertedStores            0                       # Number of stores inserted to the mem dependence unit. (Count)
system.cpu0.MemDepUnit__2.conflictingLoads            0                       # Number of conflicting loads. (Count)
system.cpu0.MemDepUnit__2.conflictingStores            0                       # Number of conflicting stores. (Count)
system.cpu0.MemDepUnit__3.insertedLoads             0                       # Number of loads inserted to the mem dependence unit. (Count)
system.cpu0.MemDepUnit__3.insertedStores            0                       # Number of stores inserted to the mem dependence unit. (Count)
system.cpu0.MemDepUnit__3.conflictingLoads            0                       # Number of conflicting loads. (Count)
system.cpu0.MemDepUnit__3.conflictingStores            0                       # Number of conflicting stores. (Count)
system.cpu0.branchPred.lookups                3920447                       # Number of BP lookups (Count)
system.cpu0.branchPred.condPredicted          2809142                       # Number of conditional branches predicted (Count)
system.cpu0.branchPred.condIncorrect            27217                       # Number of conditional branches incorrect (Count)
system.cpu0.branchPred.BTBLookups             2283619                       # Number of BTB lookups (Count)
system.cpu0.branchPred.BTBHits                2281430                       # Number of BTB hits (Count)
system.cpu0.branchPred.BTBHitRatio           0.999041                       # BTB Hit Ratio (Ratio)
system.cpu0.branchPred.RASUsed                 464868                       # Number of times the RAS was used to get a target. (Count)
system.cpu0.branchPred.RASIncorrect                 4                       # Number of incorrect RAS predictions. (Count)
system.cpu0.branchPred.indirectLookups           1411                       # Number of indirect predictor lookups. (Count)
system.cpu0.branchPred.indirectHits               355                       # Number of indirect target hits. (Count)
system.cpu0.branchPred.indirectMisses            1056                       # Number of indirect misses. (Count)
system.cpu0.branchPred.indirectMispredicted          204                       # Number of mispredicted indirect branches. (Count)
system.cpu0.commit.commitSquashedInsts         756384                       # The number of squashed insts skipped by commit (Count)
system.cpu0.commit.commitNonSpecStalls            693                       # The number of times commit has been forced to stall to communicate backwards (Count)
system.cpu0.commit.branchMispredicts            26457                       # The number of times a branch was mispredicted (Count)
system.cpu0.commit.numCommittedDist::samples     25747270                       # Number of insts commited each cycle (Count)
system.cpu0.commit.numCommittedDist::mean     2.580700                       # Number of insts commited each cycle (Count)
system.cpu0.commit.numCommittedDist::stdev     3.042116                       # Number of insts commited each cycle (Count)
system.cpu0.commit.numCommittedDist::underflows            0      0.00%      0.00% # Number of insts commited each cycle (Count)
system.cpu0.commit.numCommittedDist::0       10290573     39.97%     39.97% # Number of insts commited each cycle (Count)
system.cpu0.commit.numCommittedDist::1        3796149     14.74%     54.71% # Number of insts commited each cycle (Count)
system.cpu0.commit.numCommittedDist::2        1978181      7.68%     62.39% # Number of insts commited each cycle (Count)
system.cpu0.commit.numCommittedDist::3        2006358      7.79%     70.19% # Number of insts commited each cycle (Count)
system.cpu0.commit.numCommittedDist::4        1235756      4.80%     74.99% # Number of insts commited each cycle (Count)
system.cpu0.commit.numCommittedDist::5         605942      2.35%     77.34% # Number of insts commited each cycle (Count)
system.cpu0.commit.numCommittedDist::6         632149      2.46%     79.80% # Number of insts commited each cycle (Count)
system.cpu0.commit.numCommittedDist::7         708535      2.75%     82.55% # Number of insts commited each cycle (Count)
system.cpu0.commit.numCommittedDist::8        4493627     17.45%    100.00% # Number of insts commited each cycle (Count)
system.cpu0.commit.numCommittedDist::overflows            0      0.00%    100.00% # Number of insts commited each cycle (Count)
system.cpu0.commit.numCommittedDist::min_value            0                       # Number of insts commited each cycle (Count)
system.cpu0.commit.numCommittedDist::max_value            8                       # Number of insts commited each cycle (Count)
system.cpu0.commit.numCommittedDist::total     25747270                       # Number of insts commited each cycle (Count)
system.cpu0.commit.instsCommitted            39456566                       # Number of instructions committed (Count)
system.cpu0.commit.opsCommitted              66445974                       # Number of ops (including micro ops) committed (Count)
system.cpu0.commit.memRefs                   12614793                       # Number of memory references committed (Count)
system.cpu0.commit.loads                      8051435                       # Number of loads committed (Count)
system.cpu0.commit.amos                             0                       # Number of atomic instructions committed (Count)
system.cpu0.commit.membars                        462                       # Number of memory barriers committed (Count)
system.cpu0.commit.branches                   3846746                       # Number of branches committed (Count)
system.cpu0.commit.vectorInstructions               0                       # Number of committed Vector instructions. (Count)
system.cpu0.commit.floating                  27414580                       # Number of committed floating point instructions. (Count)
system.cpu0.commit.integer                   46823514                       # Number of committed integer instructions. (Count)
system.cpu0.commit.functionCalls               460540                       # Number of function calls committed. (Count)
system.cpu0.commit.committedInstType_0::No_OpClass       135261      0.20%      0.20% # Class of committed instruction (Count)
system.cpu0.commit.committedInstType_0::IntAlu     39822859     59.93%     60.14% # Class of committed instruction (Count)
system.cpu0.commit.committedInstType_0::IntMult       131841      0.20%     60.33% # Class of committed instruction (Count)
system.cpu0.commit.committedInstType_0::IntDiv        14679      0.02%     60.36% # Class of committed instruction (Count)
system.cpu0.commit.committedInstType_0::FloatAdd      3850550      5.80%     66.15% # Class of committed instruction (Count)
system.cpu0.commit.committedInstType_0::FloatCmp            0      0.00%     66.15% # Class of committed instruction (Count)
system.cpu0.commit.committedInstType_0::FloatCvt            0      0.00%     66.15% # Class of committed instruction (Count)
system.cpu0.commit.committedInstType_0::FloatMult            0      0.00%     66.15% # Class of committed instruction (Count)
system.cpu0.commit.committedInstType_0::FloatMultAcc            0      0.00%     66.15% # Class of committed instruction (Count)
system.cpu0.commit.committedInstType_0::FloatDiv            0      0.00%     66.15% # Class of committed instruction (Count)
system.cpu0.commit.committedInstType_0::FloatMisc            0      0.00%     66.15% # Class of committed instruction (Count)
system.cpu0.commit.committedInstType_0::FloatSqrt            0      0.00%     66.15% # Class of committed instruction (Count)
system.cpu0.commit.committedInstType_0::SimdAdd          374      0.00%     66.15% # Class of committed instruction (Count)
system.cpu0.commit.committedInstType_0::SimdAddAcc            0      0.00%     66.15% # Class of committed instruction (Count)
system.cpu0.commit.committedInstType_0::SimdAlu      1749868      2.63%     68.79% # Class of committed instruction (Count)
system.cpu0.commit.committedInstType_0::SimdCmp            0      0.00%     68.79% # Class of committed instruction (Count)
system.cpu0.commit.committedInstType_0::SimdCvt          558      0.00%     68.79% # Class of committed instruction (Count)
system.cpu0.commit.committedInstType_0::SimdMisc       343795      0.52%     69.30% # Class of committed instruction (Count)
system.cpu0.commit.committedInstType_0::SimdMult            0      0.00%     69.30% # Class of committed instruction (Count)
system.cpu0.commit.committedInstType_0::SimdMultAcc            0      0.00%     69.30% # Class of committed instruction (Count)
system.cpu0.commit.committedInstType_0::SimdShift          186      0.00%     69.30% # Class of committed instruction (Count)
system.cpu0.commit.committedInstType_0::SimdShiftAcc            0      0.00%     69.30% # Class of committed instruction (Count)
system.cpu0.commit.committedInstType_0::SimdDiv            0      0.00%     69.30% # Class of committed instruction (Count)
system.cpu0.commit.committedInstType_0::SimdSqrt            0      0.00%     69.30% # Class of committed instruction (Count)
system.cpu0.commit.committedInstType_0::SimdFloatAdd      4074534      6.13%     75.44% # Class of committed instruction (Count)
system.cpu0.commit.committedInstType_0::SimdFloatAlu            0      0.00%     75.44% # Class of committed instruction (Count)
system.cpu0.commit.committedInstType_0::SimdFloatCmp            0      0.00%     75.44% # Class of committed instruction (Count)
system.cpu0.commit.committedInstType_0::SimdFloatCvt       422076      0.64%     76.07% # Class of committed instruction (Count)
system.cpu0.commit.committedInstType_0::SimdFloatDiv        65794      0.10%     76.17% # Class of committed instruction (Count)
system.cpu0.commit.committedInstType_0::SimdFloatMisc            0      0.00%     76.17% # Class of committed instruction (Count)
system.cpu0.commit.committedInstType_0::SimdFloatMult      3218806      4.84%     81.01% # Class of committed instruction (Count)
system.cpu0.commit.committedInstType_0::SimdFloatMultAcc            0      0.00%     81.01% # Class of committed instruction (Count)
system.cpu0.commit.committedInstType_0::SimdFloatSqrt            0      0.00%     81.01% # Class of committed instruction (Count)
system.cpu0.commit.committedInstType_0::SimdReduceAdd            0      0.00%     81.01% # Class of committed instruction (Count)
system.cpu0.commit.committedInstType_0::SimdReduceAlu            0      0.00%     81.01% # Class of committed instruction (Count)
system.cpu0.commit.committedInstType_0::SimdReduceCmp            0      0.00%     81.01% # Class of committed instruction (Count)
system.cpu0.commit.committedInstType_0::SimdFloatReduceAdd            0      0.00%     81.01% # Class of committed instruction (Count)
system.cpu0.commit.committedInstType_0::SimdFloatReduceCmp            0      0.00%     81.01% # Class of committed instruction (Count)
system.cpu0.commit.committedInstType_0::SimdAes            0      0.00%     81.01% # Class of committed instruction (Count)
system.cpu0.commit.committedInstType_0::SimdAesMix            0      0.00%     81.01% # Class of committed instruction (Count)
system.cpu0.commit.committedInstType_0::SimdSha1Hash            0      0.00%     81.01% # Class of committed instruction (Count)
system.cpu0.commit.committedInstType_0::SimdSha1Hash2            0      0.00%     81.01% # Class of committed instruction (Count)
system.cpu0.commit.committedInstType_0::SimdSha256Hash            0      0.00%     81.01% # Class of committed instruction (Count)
system.cpu0.commit.committedInstType_0::SimdSha256Hash2            0      0.00%     81.01% # Class of committed instruction (Count)
system.cpu0.commit.committedInstType_0::SimdShaSigma2            0      0.00%     81.01% # Class of committed instruction (Count)
system.cpu0.commit.committedInstType_0::SimdShaSigma3            0      0.00%     81.01% # Class of committed instruction (Count)
system.cpu0.commit.committedInstType_0::SimdPredAlu            0      0.00%     81.01% # Class of committed instruction (Count)
system.cpu0.commit.committedInstType_0::MemRead      3046416      4.58%     85.60% # Class of committed instruction (Count)
system.cpu0.commit.committedInstType_0::MemWrite      1980956      2.98%     88.58% # Class of committed instruction (Count)
system.cpu0.commit.committedInstType_0::FloatMemRead      5005019      7.53%     96.11% # Class of committed instruction (Count)
system.cpu0.commit.committedInstType_0::FloatMemWrite      2582402      3.89%    100.00% # Class of committed instruction (Count)
system.cpu0.commit.committedInstType_0::IprAccess            0      0.00%    100.00% # Class of committed instruction (Count)
system.cpu0.commit.committedInstType_0::InstPrefetch            0      0.00%    100.00% # Class of committed instruction (Count)
system.cpu0.commit.committedInstType_0::total     66445974                       # Class of committed instruction (Count)
system.cpu0.commit.commitEligibleSamples      4493627                       # number cycles where commit BW limit reached (Cycle)
system.cpu0.dcache.demandHits::cpu0.data      9987382                       # number of demand (read+write) hits (Count)
system.cpu0.dcache.demandHits::total          9987382                       # number of demand (read+write) hits (Count)
system.cpu0.dcache.overallHits::cpu0.data      9987382                       # number of overall hits (Count)
system.cpu0.dcache.overallHits::total         9987382                       # number of overall hits (Count)
system.cpu0.dcache.demandMisses::cpu0.data       281384                       # number of demand (read+write) misses (Count)
system.cpu0.dcache.demandMisses::total         281384                       # number of demand (read+write) misses (Count)
system.cpu0.dcache.overallMisses::cpu0.data       281384                       # number of overall misses (Count)
system.cpu0.dcache.overallMisses::total        281384                       # number of overall misses (Count)
system.cpu0.dcache.demandMissLatency::cpu0.data   6897971424                       # number of demand (read+write) miss ticks (Tick)
system.cpu0.dcache.demandMissLatency::total   6897971424                       # number of demand (read+write) miss ticks (Tick)
system.cpu0.dcache.overallMissLatency::cpu0.data   6897971424                       # number of overall miss ticks (Tick)
system.cpu0.dcache.overallMissLatency::total   6897971424                       # number of overall miss ticks (Tick)
system.cpu0.dcache.demandAccesses::cpu0.data     10268766                       # number of demand (read+write) accesses (Count)
system.cpu0.dcache.demandAccesses::total     10268766                       # number of demand (read+write) accesses (Count)
system.cpu0.dcache.overallAccesses::cpu0.data     10268766                       # number of overall (read+write) accesses (Count)
system.cpu0.dcache.overallAccesses::total     10268766                       # number of overall (read+write) accesses (Count)
system.cpu0.dcache.demandMissRate::cpu0.data     0.027402                       # miss rate for demand accesses (Ratio)
system.cpu0.dcache.demandMissRate::total     0.027402                       # miss rate for demand accesses (Ratio)
system.cpu0.dcache.overallMissRate::cpu0.data     0.027402                       # miss rate for overall accesses (Ratio)
system.cpu0.dcache.overallMissRate::total     0.027402                       # miss rate for overall accesses (Ratio)
system.cpu0.dcache.demandAvgMissLatency::cpu0.data 24514.440850                       # average overall miss latency in ticks ((Tick/Count))
system.cpu0.dcache.demandAvgMissLatency::total 24514.440850                       # average overall miss latency in ticks ((Tick/Count))
system.cpu0.dcache.overallAvgMissLatency::cpu0.data 24514.440850                       # average overall miss latency ((Tick/Count))
system.cpu0.dcache.overallAvgMissLatency::total 24514.440850                       # average overall miss latency ((Tick/Count))
system.cpu0.dcache.blockedCycles::no_mshrs        30077                       # number of cycles access was blocked (Cycle)
system.cpu0.dcache.blockedCycles::no_targets            0                       # number of cycles access was blocked (Cycle)
system.cpu0.dcache.blockedCauses::no_mshrs         2843                       # number of times access was blocked (Count)
system.cpu0.dcache.blockedCauses::no_targets            0                       # number of times access was blocked (Count)
system.cpu0.dcache.avgBlocked::no_mshrs     10.579318                       # average number of cycles each access was blocked ((Cycle/Count))
system.cpu0.dcache.avgBlocked::no_targets          nan                       # average number of cycles each access was blocked ((Cycle/Count))
system.cpu0.dcache.writebacks::writebacks        92035                       # number of writebacks (Count)
system.cpu0.dcache.writebacks::total            92035                       # number of writebacks (Count)
system.cpu0.dcache.demandMshrHits::cpu0.data       172083                       # number of demand (read+write) MSHR hits (Count)
system.cpu0.dcache.demandMshrHits::total       172083                       # number of demand (read+write) MSHR hits (Count)
system.cpu0.dcache.overallMshrHits::cpu0.data       172083                       # number of overall MSHR hits (Count)
system.cpu0.dcache.overallMshrHits::total       172083                       # number of overall MSHR hits (Count)
system.cpu0.dcache.demandMshrMisses::cpu0.data       109301                       # number of demand (read+write) MSHR misses (Count)
system.cpu0.dcache.demandMshrMisses::total       109301                       # number of demand (read+write) MSHR misses (Count)
system.cpu0.dcache.overallMshrMisses::cpu0.data       109301                       # number of overall MSHR misses (Count)
system.cpu0.dcache.overallMshrMisses::total       109301                       # number of overall MSHR misses (Count)
system.cpu0.dcache.demandMshrMissLatency::cpu0.data   4758266578                       # number of demand (read+write) MSHR miss ticks (Tick)
system.cpu0.dcache.demandMshrMissLatency::total   4758266578                       # number of demand (read+write) MSHR miss ticks (Tick)
system.cpu0.dcache.overallMshrMissLatency::cpu0.data   4758266578                       # number of overall MSHR miss ticks (Tick)
system.cpu0.dcache.overallMshrMissLatency::total   4758266578                       # number of overall MSHR miss ticks (Tick)
system.cpu0.dcache.demandMshrMissRate::cpu0.data     0.010644                       # mshr miss ratio for demand accesses (Ratio)
system.cpu0.dcache.demandMshrMissRate::total     0.010644                       # mshr miss ratio for demand accesses (Ratio)
system.cpu0.dcache.overallMshrMissRate::cpu0.data     0.010644                       # mshr miss ratio for overall accesses (Ratio)
system.cpu0.dcache.overallMshrMissRate::total     0.010644                       # mshr miss ratio for overall accesses (Ratio)
system.cpu0.dcache.demandAvgMshrMissLatency::cpu0.data 43533.605164                       # average overall mshr miss latency ((Tick/Count))
system.cpu0.dcache.demandAvgMshrMissLatency::total 43533.605164                       # average overall mshr miss latency ((Tick/Count))
system.cpu0.dcache.overallAvgMshrMissLatency::cpu0.data 43533.605164                       # average overall mshr miss latency ((Tick/Count))
system.cpu0.dcache.overallAvgMshrMissLatency::total 43533.605164                       # average overall mshr miss latency ((Tick/Count))
system.cpu0.dcache.replacements                108190                       # number of replacements (Count)
system.cpu0.dcache.LockedRMWReadReq.hits::cpu0.data          198                       # number of LockedRMWReadReq hits (Count)
system.cpu0.dcache.LockedRMWReadReq.hits::total          198                       # number of LockedRMWReadReq hits (Count)
system.cpu0.dcache.LockedRMWReadReq.misses::cpu0.data           33                       # number of LockedRMWReadReq misses (Count)
system.cpu0.dcache.LockedRMWReadReq.misses::total           33                       # number of LockedRMWReadReq misses (Count)
system.cpu0.dcache.LockedRMWReadReq.missLatency::cpu0.data       832167                       # number of LockedRMWReadReq miss ticks (Tick)
system.cpu0.dcache.LockedRMWReadReq.missLatency::total       832167                       # number of LockedRMWReadReq miss ticks (Tick)
system.cpu0.dcache.LockedRMWReadReq.accesses::cpu0.data          231                       # number of LockedRMWReadReq accesses(hits+misses) (Count)
system.cpu0.dcache.LockedRMWReadReq.accesses::total          231                       # number of LockedRMWReadReq accesses(hits+misses) (Count)
system.cpu0.dcache.LockedRMWReadReq.missRate::cpu0.data     0.142857                       # miss rate for LockedRMWReadReq accesses (Ratio)
system.cpu0.dcache.LockedRMWReadReq.missRate::total     0.142857                       # miss rate for LockedRMWReadReq accesses (Ratio)
system.cpu0.dcache.LockedRMWReadReq.avgMissLatency::cpu0.data 25217.181818                       # average LockedRMWReadReq miss latency ((Tick/Count))
system.cpu0.dcache.LockedRMWReadReq.avgMissLatency::total 25217.181818                       # average LockedRMWReadReq miss latency ((Tick/Count))
system.cpu0.dcache.LockedRMWReadReq.mshrMisses::cpu0.data           33                       # number of LockedRMWReadReq MSHR misses (Count)
system.cpu0.dcache.LockedRMWReadReq.mshrMisses::total           33                       # number of LockedRMWReadReq MSHR misses (Count)
system.cpu0.dcache.LockedRMWReadReq.mshrMissLatency::cpu0.data      2389044                       # number of LockedRMWReadReq MSHR miss ticks (Tick)
system.cpu0.dcache.LockedRMWReadReq.mshrMissLatency::total      2389044                       # number of LockedRMWReadReq MSHR miss ticks (Tick)
system.cpu0.dcache.LockedRMWReadReq.mshrMissRate::cpu0.data     0.142857                       # mshr miss rate for LockedRMWReadReq accesses (Ratio)
system.cpu0.dcache.LockedRMWReadReq.mshrMissRate::total     0.142857                       # mshr miss rate for LockedRMWReadReq accesses (Ratio)
system.cpu0.dcache.LockedRMWReadReq.avgMshrMissLatency::cpu0.data 72395.272727                       # average LockedRMWReadReq mshr miss latency ((Tick/Count))
system.cpu0.dcache.LockedRMWReadReq.avgMshrMissLatency::total 72395.272727                       # average LockedRMWReadReq mshr miss latency ((Tick/Count))
system.cpu0.dcache.LockedRMWWriteReq.hits::cpu0.data          231                       # number of LockedRMWWriteReq hits (Count)
system.cpu0.dcache.LockedRMWWriteReq.hits::total          231                       # number of LockedRMWWriteReq hits (Count)
system.cpu0.dcache.LockedRMWWriteReq.accesses::cpu0.data          231                       # number of LockedRMWWriteReq accesses(hits+misses) (Count)
system.cpu0.dcache.LockedRMWWriteReq.accesses::total          231                       # number of LockedRMWWriteReq accesses(hits+misses) (Count)
system.cpu0.dcache.ReadReq.hits::cpu0.data      5482700                       # number of ReadReq hits (Count)
system.cpu0.dcache.ReadReq.hits::total        5482700                       # number of ReadReq hits (Count)
system.cpu0.dcache.ReadReq.misses::cpu0.data       222917                       # number of ReadReq misses (Count)
system.cpu0.dcache.ReadReq.misses::total       222917                       # number of ReadReq misses (Count)
system.cpu0.dcache.ReadReq.missLatency::cpu0.data   2787264291                       # number of ReadReq miss ticks (Tick)
system.cpu0.dcache.ReadReq.missLatency::total   2787264291                       # number of ReadReq miss ticks (Tick)
system.cpu0.dcache.ReadReq.accesses::cpu0.data      5705617                       # number of ReadReq accesses(hits+misses) (Count)
system.cpu0.dcache.ReadReq.accesses::total      5705617                       # number of ReadReq accesses(hits+misses) (Count)
system.cpu0.dcache.ReadReq.missRate::cpu0.data     0.039070                       # miss rate for ReadReq accesses (Ratio)
system.cpu0.dcache.ReadReq.missRate::total     0.039070                       # miss rate for ReadReq accesses (Ratio)
system.cpu0.dcache.ReadReq.avgMissLatency::cpu0.data 12503.596814                       # average ReadReq miss latency ((Tick/Count))
system.cpu0.dcache.ReadReq.avgMissLatency::total 12503.596814                       # average ReadReq miss latency ((Tick/Count))
system.cpu0.dcache.ReadReq.mshrHits::cpu0.data       172078                       # number of ReadReq MSHR hits (Count)
system.cpu0.dcache.ReadReq.mshrHits::total       172078                       # number of ReadReq MSHR hits (Count)
system.cpu0.dcache.ReadReq.mshrMisses::cpu0.data        50839                       # number of ReadReq MSHR misses (Count)
system.cpu0.dcache.ReadReq.mshrMisses::total        50839                       # number of ReadReq MSHR misses (Count)
system.cpu0.dcache.ReadReq.mshrMissLatency::cpu0.data    689414481                       # number of ReadReq MSHR miss ticks (Tick)
system.cpu0.dcache.ReadReq.mshrMissLatency::total    689414481                       # number of ReadReq MSHR miss ticks (Tick)
system.cpu0.dcache.ReadReq.mshrMissRate::cpu0.data     0.008910                       # mshr miss rate for ReadReq accesses (Ratio)
system.cpu0.dcache.ReadReq.mshrMissRate::total     0.008910                       # mshr miss rate for ReadReq accesses (Ratio)
system.cpu0.dcache.ReadReq.avgMshrMissLatency::cpu0.data 13560.740396                       # average ReadReq mshr miss latency ((Tick/Count))
system.cpu0.dcache.ReadReq.avgMshrMissLatency::total 13560.740396                       # average ReadReq mshr miss latency ((Tick/Count))
system.cpu0.dcache.WriteReq.hits::cpu0.data      4504682                       # number of WriteReq hits (Count)
system.cpu0.dcache.WriteReq.hits::total       4504682                       # number of WriteReq hits (Count)
system.cpu0.dcache.WriteReq.misses::cpu0.data        58467                       # number of WriteReq misses (Count)
system.cpu0.dcache.WriteReq.misses::total        58467                       # number of WriteReq misses (Count)
system.cpu0.dcache.WriteReq.missLatency::cpu0.data   4110707133                       # number of WriteReq miss ticks (Tick)
system.cpu0.dcache.WriteReq.missLatency::total   4110707133                       # number of WriteReq miss ticks (Tick)
system.cpu0.dcache.WriteReq.accesses::cpu0.data      4563149                       # number of WriteReq accesses(hits+misses) (Count)
system.cpu0.dcache.WriteReq.accesses::total      4563149                       # number of WriteReq accesses(hits+misses) (Count)
system.cpu0.dcache.WriteReq.missRate::cpu0.data     0.012813                       # miss rate for WriteReq accesses (Ratio)
system.cpu0.dcache.WriteReq.missRate::total     0.012813                       # miss rate for WriteReq accesses (Ratio)
system.cpu0.dcache.WriteReq.avgMissLatency::cpu0.data 70308.159013                       # average WriteReq miss latency ((Tick/Count))
system.cpu0.dcache.WriteReq.avgMissLatency::total 70308.159013                       # average WriteReq miss latency ((Tick/Count))
system.cpu0.dcache.WriteReq.mshrHits::cpu0.data            5                       # number of WriteReq MSHR hits (Count)
system.cpu0.dcache.WriteReq.mshrHits::total            5                       # number of WriteReq MSHR hits (Count)
system.cpu0.dcache.WriteReq.mshrMisses::cpu0.data        58462                       # number of WriteReq MSHR misses (Count)
system.cpu0.dcache.WriteReq.mshrMisses::total        58462                       # number of WriteReq MSHR misses (Count)
system.cpu0.dcache.WriteReq.mshrMissLatency::cpu0.data   4068852097                       # number of WriteReq MSHR miss ticks (Tick)
system.cpu0.dcache.WriteReq.mshrMissLatency::total   4068852097                       # number of WriteReq MSHR miss ticks (Tick)
system.cpu0.dcache.WriteReq.mshrMissRate::cpu0.data     0.012812                       # mshr miss rate for WriteReq accesses (Ratio)
system.cpu0.dcache.WriteReq.mshrMissRate::total     0.012812                       # mshr miss rate for WriteReq accesses (Ratio)
system.cpu0.dcache.WriteReq.avgMshrMissLatency::cpu0.data 69598.236410                       # average WriteReq mshr miss latency ((Tick/Count))
system.cpu0.dcache.WriteReq.avgMshrMissLatency::total 69598.236410                       # average WriteReq mshr miss latency ((Tick/Count))
system.cpu0.dcache.power_state.pwrStateResidencyTicks::UNDEFINED   9348672249                       # Cumulative time (in ticks) in various power states (Tick)
system.cpu0.dcache.tags.tagsInUse         1014.164446                       # Average ticks per tags in use ((Tick/Count))
system.cpu0.dcache.tags.totalRefs            10097163                       # Total number of references to valid blocks. (Count)
system.cpu0.dcache.tags.sampledRefs            109266                       # Sample count of references to valid blocks. (Count)
system.cpu0.dcache.tags.avgRefs             92.409011                       # Average number of references to valid blocks. ((Count/Count))
system.cpu0.dcache.tags.warmupTick             190995                       # The tick when the warmup percentage was hit. (Tick)
system.cpu0.dcache.tags.occupancies::cpu0.data  1014.164446                       # Average occupied blocks per tick, per requestor ((Count/Tick))
system.cpu0.dcache.tags.avgOccs::cpu0.data     0.990395                       # Average percentage of cache occupancy ((Ratio/Tick))
system.cpu0.dcache.tags.avgOccs::total       0.990395                       # Average percentage of cache occupancy ((Ratio/Tick))
system.cpu0.dcache.tags.occupanciesTaskId::1024         1024                       # Occupied blocks per task id (Count)
system.cpu0.dcache.tags.ageTaskId_1024::0           33                       # Occupied blocks per task id, per block age (Count)
system.cpu0.dcache.tags.ageTaskId_1024::1          991                       # Occupied blocks per task id, per block age (Count)
system.cpu0.dcache.tags.ratioOccsTaskId::1024            1                       # Ratio of occupied blocks and all blocks, per task id (Ratio)
system.cpu0.dcache.tags.tagAccesses          82263090                       # Number of tag accesses (Count)
system.cpu0.dcache.tags.dataAccesses         82263090                       # Number of data accesses (Count)
system.cpu0.dcache.tags.power_state.pwrStateResidencyTicks::UNDEFINED   9348672249                       # Cumulative time (in ticks) in various power states (Tick)
system.cpu0.decode.idleCycles                 5164113                       # Number of cycles decode is idle (Cycle)
system.cpu0.decode.blockedCycles              9942112                       # Number of cycles decode is blocked (Cycle)
system.cpu0.decode.runCycles                 10481766                       # Number of cycles decode is running (Cycle)
system.cpu0.decode.unblockCycles               239766                       # Number of cycles decode is unblocking (Cycle)
system.cpu0.decode.squashCycles                 27458                       # Number of cycles decode is squashing (Cycle)
system.cpu0.decode.branchResolved             2277219                       # Number of times decode resolved a branch (Count)
system.cpu0.decode.branchMispred                  937                       # Number of times decode detected a branch misprediction (Count)
system.cpu0.decode.decodedInsts              67604835                       # Number of instructions handled by decode (Count)
system.cpu0.decode.squashedInsts                 3975                       # Number of squashed instructions handled by decode (Count)
system.cpu0.dtb_walker_cache.blockedCycles::no_mshrs            0                       # number of cycles access was blocked (Cycle)
system.cpu0.dtb_walker_cache.blockedCycles::no_targets            0                       # number of cycles access was blocked (Cycle)
system.cpu0.dtb_walker_cache.blockedCauses::no_mshrs            0                       # number of times access was blocked (Count)
system.cpu0.dtb_walker_cache.blockedCauses::no_targets            0                       # number of times access was blocked (Count)
system.cpu0.dtb_walker_cache.avgBlocked::no_mshrs          nan                       # average number of cycles each access was blocked ((Cycle/Count))
system.cpu0.dtb_walker_cache.avgBlocked::no_targets          nan                       # average number of cycles each access was blocked ((Cycle/Count))
system.cpu0.dtb_walker_cache.replacements            0                       # number of replacements (Count)
system.cpu0.dtb_walker_cache.power_state.pwrStateResidencyTicks::UNDEFINED   9348672249                       # Cumulative time (in ticks) in various power states (Tick)
system.cpu0.dtb_walker_cache.tags.tagsInUse            0                       # Average ticks per tags in use ((Tick/Count))
system.cpu0.dtb_walker_cache.tags.totalRefs            0                       # Total number of references to valid blocks. (Count)
system.cpu0.dtb_walker_cache.tags.sampledRefs            0                       # Sample count of references to valid blocks. (Count)
system.cpu0.dtb_walker_cache.tags.avgRefs          nan                       # Average number of references to valid blocks. ((Count/Count))
system.cpu0.dtb_walker_cache.tags.warmupTick            0                       # The tick when the warmup percentage was hit. (Tick)
system.cpu0.dtb_walker_cache.tags.tagAccesses            0                       # Number of tag accesses (Count)
system.cpu0.dtb_walker_cache.tags.dataAccesses            0                       # Number of data accesses (Count)
system.cpu0.dtb_walker_cache.tags.power_state.pwrStateResidencyTicks::UNDEFINED   9348672249                       # Cumulative time (in ticks) in various power states (Tick)
system.cpu0.fetch.icacheStallCycles           5419044                       # Number of cycles fetch is stalled on an Icache miss (Cycle)
system.cpu0.fetch.insts                      40188755                       # Number of instructions fetch has processed (Count)
system.cpu0.fetch.branches                    3920447                       # Number of branches that fetch encountered (Count)
system.cpu0.fetch.predictedBranches           2746653                       # Number of branches that fetch has predicted taken (Count)
system.cpu0.fetch.cycles                     20406425                       # Number of cycles fetch has run and was not squashing or blocked (Cycle)
system.cpu0.fetch.squashCycles                  56754                       # Number of cycles fetch has spent squashing (Cycle)
system.cpu0.fetch.miscStallCycles                 170                       # Number of cycles fetch has spent waiting on interrupts, or bad addresses, or out of MSHRs (Cycle)
system.cpu0.fetch.pendingTrapStallCycles         1184                       # Number of stall cycles due to pending traps (Cycle)
system.cpu0.fetch.icacheWaitRetryStallCycles           15                       # Number of stall cycles due to full MSHR (Cycle)
system.cpu0.fetch.cacheLines                  5354961                       # Number of cache lines fetched (Count)
system.cpu0.fetch.icacheSquashes                 8573                       # Number of outstanding Icache misses that were squashed (Count)
system.cpu0.fetch.nisnDist::samples          25855215                       # Number of instructions fetched each cycle (Total) (Count)
system.cpu0.fetch.nisnDist::mean             2.619683                       # Number of instructions fetched each cycle (Total) (Count)
system.cpu0.fetch.nisnDist::stdev            3.420974                       # Number of instructions fetched each cycle (Total) (Count)
system.cpu0.fetch.nisnDist::underflows              0      0.00%      0.00% # Number of instructions fetched each cycle (Total) (Count)
system.cpu0.fetch.nisnDist::0                14888591     57.58%     57.58% # Number of instructions fetched each cycle (Total) (Count)
system.cpu0.fetch.nisnDist::1                  453686      1.75%     59.34% # Number of instructions fetched each cycle (Total) (Count)
system.cpu0.fetch.nisnDist::2                  765808      2.96%     62.30% # Number of instructions fetched each cycle (Total) (Count)
system.cpu0.fetch.nisnDist::3                 1178432      4.56%     66.86% # Number of instructions fetched each cycle (Total) (Count)
system.cpu0.fetch.nisnDist::4                  571887      2.21%     69.07% # Number of instructions fetched each cycle (Total) (Count)
system.cpu0.fetch.nisnDist::5                  734390      2.84%     71.91% # Number of instructions fetched each cycle (Total) (Count)
system.cpu0.fetch.nisnDist::6                  649991      2.51%     74.43% # Number of instructions fetched each cycle (Total) (Count)
system.cpu0.fetch.nisnDist::7                  547014      2.12%     76.54% # Number of instructions fetched each cycle (Total) (Count)
system.cpu0.fetch.nisnDist::8                 6065416     23.46%    100.00% # Number of instructions fetched each cycle (Total) (Count)
system.cpu0.fetch.nisnDist::overflows               0      0.00%    100.00% # Number of instructions fetched each cycle (Total) (Count)
system.cpu0.fetch.nisnDist::min_value               0                       # Number of instructions fetched each cycle (Total) (Count)
system.cpu0.fetch.nisnDist::max_value               8                       # Number of instructions fetched each cycle (Total) (Count)
system.cpu0.fetch.nisnDist::total            25855215                       # Number of instructions fetched each cycle (Total) (Count)
system.cpu0.fetch.branchRate                 0.150644                       # Number of branch fetches per cycle (Ratio)
system.cpu0.fetch.rate                       1.544258                       # Number of inst fetches per cycle ((Count/Cycle))
system.cpu0.icache.demandHits::cpu0.inst      5353188                       # number of demand (read+write) hits (Count)
system.cpu0.icache.demandHits::total          5353188                       # number of demand (read+write) hits (Count)
system.cpu0.icache.overallHits::cpu0.inst      5353188                       # number of overall hits (Count)
system.cpu0.icache.overallHits::total         5353188                       # number of overall hits (Count)
system.cpu0.icache.demandMisses::cpu0.inst         1773                       # number of demand (read+write) misses (Count)
system.cpu0.icache.demandMisses::total           1773                       # number of demand (read+write) misses (Count)
system.cpu0.icache.overallMisses::cpu0.inst         1773                       # number of overall misses (Count)
system.cpu0.icache.overallMisses::total          1773                       # number of overall misses (Count)
system.cpu0.icache.demandMissLatency::cpu0.inst    136433619                       # number of demand (read+write) miss ticks (Tick)
system.cpu0.icache.demandMissLatency::total    136433619                       # number of demand (read+write) miss ticks (Tick)
system.cpu0.icache.overallMissLatency::cpu0.inst    136433619                       # number of overall miss ticks (Tick)
system.cpu0.icache.overallMissLatency::total    136433619                       # number of overall miss ticks (Tick)
system.cpu0.icache.demandAccesses::cpu0.inst      5354961                       # number of demand (read+write) accesses (Count)
system.cpu0.icache.demandAccesses::total      5354961                       # number of demand (read+write) accesses (Count)
system.cpu0.icache.overallAccesses::cpu0.inst      5354961                       # number of overall (read+write) accesses (Count)
system.cpu0.icache.overallAccesses::total      5354961                       # number of overall (read+write) accesses (Count)
system.cpu0.icache.demandMissRate::cpu0.inst     0.000331                       # miss rate for demand accesses (Ratio)
system.cpu0.icache.demandMissRate::total     0.000331                       # miss rate for demand accesses (Ratio)
system.cpu0.icache.overallMissRate::cpu0.inst     0.000331                       # miss rate for overall accesses (Ratio)
system.cpu0.icache.overallMissRate::total     0.000331                       # miss rate for overall accesses (Ratio)
system.cpu0.icache.demandAvgMissLatency::cpu0.inst 76950.715736                       # average overall miss latency in ticks ((Tick/Count))
system.cpu0.icache.demandAvgMissLatency::total 76950.715736                       # average overall miss latency in ticks ((Tick/Count))
system.cpu0.icache.overallAvgMissLatency::cpu0.inst 76950.715736                       # average overall miss latency ((Tick/Count))
system.cpu0.icache.overallAvgMissLatency::total 76950.715736                       # average overall miss latency ((Tick/Count))
system.cpu0.icache.blockedCycles::no_mshrs          920                       # number of cycles access was blocked (Cycle)
system.cpu0.icache.blockedCycles::no_targets            0                       # number of cycles access was blocked (Cycle)
system.cpu0.icache.blockedCauses::no_mshrs            6                       # number of times access was blocked (Count)
system.cpu0.icache.blockedCauses::no_targets            0                       # number of times access was blocked (Count)
system.cpu0.icache.avgBlocked::no_mshrs    153.333333                       # average number of cycles each access was blocked ((Cycle/Count))
system.cpu0.icache.avgBlocked::no_targets          nan                       # average number of cycles each access was blocked ((Cycle/Count))
system.cpu0.icache.writebacks::writebacks          902                       # number of writebacks (Count)
system.cpu0.icache.writebacks::total              902                       # number of writebacks (Count)
system.cpu0.icache.demandMshrHits::cpu0.inst          359                       # number of demand (read+write) MSHR hits (Count)
system.cpu0.icache.demandMshrHits::total          359                       # number of demand (read+write) MSHR hits (Count)
system.cpu0.icache.overallMshrHits::cpu0.inst          359                       # number of overall MSHR hits (Count)
system.cpu0.icache.overallMshrHits::total          359                       # number of overall MSHR hits (Count)
system.cpu0.icache.demandMshrMisses::cpu0.inst         1414                       # number of demand (read+write) MSHR misses (Count)
system.cpu0.icache.demandMshrMisses::total         1414                       # number of demand (read+write) MSHR misses (Count)
system.cpu0.icache.overallMshrMisses::cpu0.inst         1414                       # number of overall MSHR misses (Count)
system.cpu0.icache.overallMshrMisses::total         1414                       # number of overall MSHR misses (Count)
system.cpu0.icache.demandMshrMissLatency::cpu0.inst    113070468                       # number of demand (read+write) MSHR miss ticks (Tick)
system.cpu0.icache.demandMshrMissLatency::total    113070468                       # number of demand (read+write) MSHR miss ticks (Tick)
system.cpu0.icache.overallMshrMissLatency::cpu0.inst    113070468                       # number of overall MSHR miss ticks (Tick)
system.cpu0.icache.overallMshrMissLatency::total    113070468                       # number of overall MSHR miss ticks (Tick)
system.cpu0.icache.demandMshrMissRate::cpu0.inst     0.000264                       # mshr miss ratio for demand accesses (Ratio)
system.cpu0.icache.demandMshrMissRate::total     0.000264                       # mshr miss ratio for demand accesses (Ratio)
system.cpu0.icache.overallMshrMissRate::cpu0.inst     0.000264                       # mshr miss ratio for overall accesses (Ratio)
system.cpu0.icache.overallMshrMissRate::total     0.000264                       # mshr miss ratio for overall accesses (Ratio)
system.cpu0.icache.demandAvgMshrMissLatency::cpu0.inst 79964.970297                       # average overall mshr miss latency ((Tick/Count))
system.cpu0.icache.demandAvgMshrMissLatency::total 79964.970297                       # average overall mshr miss latency ((Tick/Count))
system.cpu0.icache.overallAvgMshrMissLatency::cpu0.inst 79964.970297                       # average overall mshr miss latency ((Tick/Count))
system.cpu0.icache.overallAvgMshrMissLatency::total 79964.970297                       # average overall mshr miss latency ((Tick/Count))
system.cpu0.icache.replacements                   902                       # number of replacements (Count)
system.cpu0.icache.ReadReq.hits::cpu0.inst      5353188                       # number of ReadReq hits (Count)
system.cpu0.icache.ReadReq.hits::total        5353188                       # number of ReadReq hits (Count)
system.cpu0.icache.ReadReq.misses::cpu0.inst         1773                       # number of ReadReq misses (Count)
system.cpu0.icache.ReadReq.misses::total         1773                       # number of ReadReq misses (Count)
system.cpu0.icache.ReadReq.missLatency::cpu0.inst    136433619                       # number of ReadReq miss ticks (Tick)
system.cpu0.icache.ReadReq.missLatency::total    136433619                       # number of ReadReq miss ticks (Tick)
system.cpu0.icache.ReadReq.accesses::cpu0.inst      5354961                       # number of ReadReq accesses(hits+misses) (Count)
system.cpu0.icache.ReadReq.accesses::total      5354961                       # number of ReadReq accesses(hits+misses) (Count)
system.cpu0.icache.ReadReq.missRate::cpu0.inst     0.000331                       # miss rate for ReadReq accesses (Ratio)
system.cpu0.icache.ReadReq.missRate::total     0.000331                       # miss rate for ReadReq accesses (Ratio)
system.cpu0.icache.ReadReq.avgMissLatency::cpu0.inst 76950.715736                       # average ReadReq miss latency ((Tick/Count))
system.cpu0.icache.ReadReq.avgMissLatency::total 76950.715736                       # average ReadReq miss latency ((Tick/Count))
system.cpu0.icache.ReadReq.mshrHits::cpu0.inst          359                       # number of ReadReq MSHR hits (Count)
system.cpu0.icache.ReadReq.mshrHits::total          359                       # number of ReadReq MSHR hits (Count)
system.cpu0.icache.ReadReq.mshrMisses::cpu0.inst         1414                       # number of ReadReq MSHR misses (Count)
system.cpu0.icache.ReadReq.mshrMisses::total         1414                       # number of ReadReq MSHR misses (Count)
system.cpu0.icache.ReadReq.mshrMissLatency::cpu0.inst    113070468                       # number of ReadReq MSHR miss ticks (Tick)
system.cpu0.icache.ReadReq.mshrMissLatency::total    113070468                       # number of ReadReq MSHR miss ticks (Tick)
system.cpu0.icache.ReadReq.mshrMissRate::cpu0.inst     0.000264                       # mshr miss rate for ReadReq accesses (Ratio)
system.cpu0.icache.ReadReq.mshrMissRate::total     0.000264                       # mshr miss rate for ReadReq accesses (Ratio)
system.cpu0.icache.ReadReq.avgMshrMissLatency::cpu0.inst 79964.970297                       # average ReadReq mshr miss latency ((Tick/Count))
system.cpu0.icache.ReadReq.avgMshrMissLatency::total 79964.970297                       # average ReadReq mshr miss latency ((Tick/Count))
system.cpu0.icache.power_state.pwrStateResidencyTicks::UNDEFINED   9348672249                       # Cumulative time (in ticks) in various power states (Tick)
system.cpu0.icache.tags.tagsInUse          507.710492                       # Average ticks per tags in use ((Tick/Count))
system.cpu0.icache.tags.totalRefs             5354602                       # Total number of references to valid blocks. (Count)
system.cpu0.icache.tags.sampledRefs              1414                       # Sample count of references to valid blocks. (Count)
system.cpu0.icache.tags.avgRefs           3786.847242                       # Average number of references to valid blocks. ((Count/Count))
system.cpu0.icache.tags.warmupTick              94248                       # The tick when the warmup percentage was hit. (Tick)
system.cpu0.icache.tags.occupancies::cpu0.inst   507.710492                       # Average occupied blocks per tick, per requestor ((Count/Tick))
system.cpu0.icache.tags.avgOccs::cpu0.inst     0.991622                       # Average percentage of cache occupancy ((Ratio/Tick))
system.cpu0.icache.tags.avgOccs::total       0.991622                       # Average percentage of cache occupancy ((Ratio/Tick))
system.cpu0.icache.tags.occupanciesTaskId::1024          512                       # Occupied blocks per task id (Count)
system.cpu0.icache.tags.ageTaskId_1024::0          108                       # Occupied blocks per task id, per block age (Count)
system.cpu0.icache.tags.ageTaskId_1024::1           60                       # Occupied blocks per task id, per block age (Count)
system.cpu0.icache.tags.ageTaskId_1024::2            4                       # Occupied blocks per task id, per block age (Count)
system.cpu0.icache.tags.ageTaskId_1024::3          340                       # Occupied blocks per task id, per block age (Count)
system.cpu0.icache.tags.ratioOccsTaskId::1024            1                       # Ratio of occupied blocks and all blocks, per task id (Ratio)
system.cpu0.icache.tags.tagAccesses          42841102                       # Number of tag accesses (Count)
system.cpu0.icache.tags.dataAccesses         42841102                       # Number of data accesses (Count)
system.cpu0.icache.tags.power_state.pwrStateResidencyTicks::UNDEFINED   9348672249                       # Cumulative time (in ticks) in various power states (Tick)
system.cpu0.iew.idleCycles                          0                       # Number of cycles IEW is idle (Cycle)
system.cpu0.iew.squashCycles                    27458                       # Number of cycles IEW is squashing (Cycle)
system.cpu0.iew.blockCycles                    162852                       # Number of cycles IEW is blocking (Cycle)
system.cpu0.iew.unblockCycles                   18783                       # Number of cycles IEW is unblocking (Cycle)
system.cpu0.iew.dispatchedInsts              67229365                       # Number of instructions dispatched to IQ (Count)
system.cpu0.iew.dispSquashedInsts               34567                       # Number of squashed instructions skipped by dispatch (Count)
system.cpu0.iew.dispLoadInsts                 8153460                       # Number of dispatched load instructions (Count)
system.cpu0.iew.dispStoreInsts                4620181                       # Number of dispatched store instructions (Count)
system.cpu0.iew.dispNonSpecInsts                  462                       # Number of dispatched non-speculative instructions (Count)
system.cpu0.iew.iqFullEvents                     1899                       # Number of times the IQ has become full, causing a stall (Count)
system.cpu0.iew.lsqFullEvents                   14604                       # Number of times the LSQ has become full, causing a stall (Count)
system.cpu0.iew.memOrderViolationEvents           305                       # Number of memory order violations (Count)
system.cpu0.iew.predictedTakenIncorrect         18473                       # Number of branches that were predicted taken incorrectly (Count)
system.cpu0.iew.predictedNotTakenIncorrect         8566                       # Number of branches that were predicted not taken incorrectly (Count)
system.cpu0.iew.branchMispredicts               27039                       # Number of branch mispredicts detected at execute (Count)
system.cpu0.iew.instsToCommit                67000965                       # Cumulative count of insts sent to commit (Count)
system.cpu0.iew.writebackCount               66991032                       # Cumulative count of insts written-back (Count)
system.cpu0.iew.producerInst                 47836582                       # Number of instructions producing a value (Count)
system.cpu0.iew.consumerInst                 80195354                       # Number of instructions consuming a value (Count)
system.cpu0.iew.wbRate                       2.574138                       # Insts written-back per cycle ((Count/Cycle))
system.cpu0.iew.wbFanout                     0.596501                       # Average fanout of values written-back ((Count/Count))
system.cpu0.interrupts.clk_domain.clock          5712                       # Clock period in ticks (Tick)
system.cpu0.itb_walker_cache.blockedCycles::no_mshrs            0                       # number of cycles access was blocked (Cycle)
system.cpu0.itb_walker_cache.blockedCycles::no_targets            0                       # number of cycles access was blocked (Cycle)
system.cpu0.itb_walker_cache.blockedCauses::no_mshrs            0                       # number of times access was blocked (Count)
system.cpu0.itb_walker_cache.blockedCauses::no_targets            0                       # number of times access was blocked (Count)
system.cpu0.itb_walker_cache.avgBlocked::no_mshrs          nan                       # average number of cycles each access was blocked ((Cycle/Count))
system.cpu0.itb_walker_cache.avgBlocked::no_targets          nan                       # average number of cycles each access was blocked ((Cycle/Count))
system.cpu0.itb_walker_cache.replacements            0                       # number of replacements (Count)
system.cpu0.itb_walker_cache.power_state.pwrStateResidencyTicks::UNDEFINED   9348672249                       # Cumulative time (in ticks) in various power states (Tick)
system.cpu0.itb_walker_cache.tags.tagsInUse            0                       # Average ticks per tags in use ((Tick/Count))
[...]
system.mem_ctrls.dram.perBankWrBursts::9            0                       # Per bank write bursts (Count)
system.mem_ctrls.dram.perBankWrBursts::10            0                       # Per bank write bursts (Count)
system.mem_ctrls.dram.perBankWrBursts::11            0                       # Per bank write bursts (Count)
system.mem_ctrls.dram.perBankWrBursts::12            0                       # Per bank write bursts (Count)
system.mem_ctrls.dram.perBankWrBursts::13            0                       # Per bank write bursts (Count)
system.mem_ctrls.dram.perBankWrBursts::14            0                       # Per bank write bursts (Count)
system.mem_ctrls.dram.perBankWrBursts::15            0                       # Per bank write bursts (Count)
system.mem_ctrls.dram.totQLat               654712781                       # Total ticks spent queuing (Tick)
system.mem_ctrls.dram.totBusLat             257930000                       # Total ticks spent in databus transfers (Tick)
system.mem_ctrls.dram.totMemAccLat         1621950281                       # Total ticks spent from burst creation until serviced by the DRAM (Tick)
system.mem_ctrls.dram.avgQLat                12691.68                       # Average queueing delay per DRAM burst ((Tick/Count))
system.mem_ctrls.dram.avgBusLat               5000.00                       # Average bus latency per DRAM burst ((Tick/Count))
system.mem_ctrls.dram.avgMemAccLat           31441.68                       # Average memory access latency per DRAM burst ((Tick/Count))
system.mem_ctrls.dram.readRowHits               35676                       # Number of row buffer hits during reads (Count)
system.mem_ctrls.dram.writeRowHits                  0                       # Number of row buffer hits during writes (Count)
system.mem_ctrls.dram.readRowHitRate            69.16                       # Row buffer hit rate for reads (Ratio)
system.mem_ctrls.dram.writeRowHitRate             nan                       # Row buffer hit rate for writes (Ratio)
system.mem_ctrls.dram.bytesPerActivate::samples        15899                       # Bytes accessed per row activation (Byte)
system.mem_ctrls.dram.bytesPerActivate::mean   207.546135                       # Bytes accessed per row activation (Byte)
system.mem_ctrls.dram.bytesPerActivate::gmean   113.830462                       # Bytes accessed per row activation (Byte)
system.mem_ctrls.dram.bytesPerActivate::stdev   305.832410                       # Bytes accessed per row activation (Byte)
system.mem_ctrls.dram.bytesPerActivate::0-127         9407     59.17%     59.17% # Bytes accessed per row activation (Byte)
system.mem_ctrls.dram.bytesPerActivate::128-255         4020     25.28%     84.45% # Bytes accessed per row activation (Byte)
system.mem_ctrls.dram.bytesPerActivate::256-383          138      0.87%     85.32% # Bytes accessed per row activation (Byte)
system.mem_ctrls.dram.bytesPerActivate::384-511          169      1.06%     86.38% # Bytes accessed per row activation (Byte)
system.mem_ctrls.dram.bytesPerActivate::512-639          174      1.09%     87.48% # Bytes accessed per row activation (Byte)
system.mem_ctrls.dram.bytesPerActivate::640-767           98      0.62%     88.09% # Bytes accessed per row activation (Byte)
system.mem_ctrls.dram.bytesPerActivate::768-895          103      0.65%     88.74% # Bytes accessed per row activation (Byte)
system.mem_ctrls.dram.bytesPerActivate::896-1023           70      0.44%     89.18% # Bytes accessed per row activation (Byte)
system.mem_ctrls.dram.bytesPerActivate::1024-1151         1720     10.82%    100.00% # Bytes accessed per row activation (Byte)
system.mem_ctrls.dram.bytesPerActivate::total        15899                       # Bytes accessed per row activation (Byte)
system.mem_ctrls.dram.bytesRead               3301504                       # Total bytes read (Byte)
system.mem_ctrls.dram.bytesWritten                  0                       # Total bytes written (Byte)
system.mem_ctrls.dram.avgRdBW              353.152182                       # Average DRAM read bandwidth in MiBytes/s ((Byte/Second))
system.mem_ctrls.dram.avgWrBW                       0                       # Average DRAM write bandwidth in MiBytes/s ((Byte/Second))
system.mem_ctrls.dram.peakBW                 12800.00                       # Theoretical peak bandwidth in MiByte/s ((Byte/Second))
system.mem_ctrls.dram.busUtil                    2.76                       # Data bus utilization in percentage (Ratio)
system.mem_ctrls.dram.busUtilRead                2.76                       # Data bus utilization in percentage for reads (Ratio)
system.mem_ctrls.dram.busUtilWrite               0.00                       # Data bus utilization in percentage for writes (Ratio)
system.mem_ctrls.dram.pageHitRate               69.16                       # Row buffer hit rate, read and write combined (Ratio)
system.mem_ctrls.dram.power_state.pwrStateResidencyTicks::UNDEFINED   9348672249                       # Cumulative time (in ticks) in various power states (Tick)
system.mem_ctrls.dram.rank0.actEnergy        56655900                       # Energy for activate commands per rank (pJ) (Joule)
system.mem_ctrls.dram.rank0.preEnergy        30094350                       # Energy for precharge commands per rank (pJ) (Joule)
system.mem_ctrls.dram.rank0.readEnergy      184975980                       # Energy for read commands per rank (pJ) (Joule)
system.mem_ctrls.dram.rank0.writeEnergy             0                       # Energy for write commands per rank (pJ) (Joule)
system.mem_ctrls.dram.rank0.refreshEnergy 737568000.000000                       # Energy for refresh commands per rank (pJ) (Joule)
system.mem_ctrls.dram.rank0.actBackEnergy   1865972520                       # Energy for active background per rank (pJ) (Joule)
system.mem_ctrls.dram.rank0.preBackEnergy   2018544960                       # Energy for precharge background per rank (pJ) (Joule)
system.mem_ctrls.dram.rank0.actPowerDownEnergy            0                       # Energy for active power-down per rank (pJ) (Joule)
system.mem_ctrls.dram.rank0.prePowerDownEnergy            0                       # Energy for precharge power-down per rank (pJ) (Joule)
system.mem_ctrls.dram.rank0.selfRefreshEnergy            0                       # Energy for self refresh per rank (pJ) (Joule)
system.mem_ctrls.dram.rank0.totalEnergy    4893811710                       # Total energy per rank (pJ) (Joule)
system.mem_ctrls.dram.rank0.averagePower   523.476658                       # Core power per rank (mW) (Watt)
system.mem_ctrls.dram.rank0.totalIdleTime            0                       # Total Idle time Per DRAM Rank (Tick)
system.mem_ctrls.dram.rank0.pwrStateTime::IDLE   5222513667                       # Time in different power states (Tick)
system.mem_ctrls.dram.rank0.pwrStateTime::REF    312000000                       # Time in different power states (Tick)
system.mem_ctrls.dram.rank0.pwrStateTime::SREF            0                       # Time in different power states (Tick)
system.mem_ctrls.dram.rank0.pwrStateTime::PRE_PDN            0                       # Time in different power states (Tick)
system.mem_ctrls.dram.rank0.pwrStateTime::ACT   3814158582                       # Time in different power states (Tick)
system.mem_ctrls.dram.rank0.pwrStateTime::ACT_PDN            0                       # Time in different power states (Tick)
system.mem_ctrls.dram.rank1.actEnergy        56941500                       # Energy for activate commands per rank (pJ) (Joule)
system.mem_ctrls.dram.rank1.preEnergy        30242355                       # Energy for precharge commands per rank (pJ) (Joule)
system.mem_ctrls.dram.rank1.readEnergy      183348060                       # Energy for read commands per rank (pJ) (Joule)
system.mem_ctrls.dram.rank1.writeEnergy             0                       # Energy for write commands per rank (pJ) (Joule)
system.mem_ctrls.dram.rank1.refreshEnergy 737568000.000000                       # Energy for refresh commands per rank (pJ) (Joule)
system.mem_ctrls.dram.rank1.actBackEnergy   1864519020                       # Energy for active background per rank (pJ) (Joule)
system.mem_ctrls.dram.rank1.preBackEnergy   2019768960                       # Energy for precharge background per rank (pJ) (Joule)
system.mem_ctrls.dram.rank1.actPowerDownEnergy            0                       # Energy for active power-down per rank (pJ) (Joule)
system.mem_ctrls.dram.rank1.prePowerDownEnergy            0                       # Energy for precharge power-down per rank (pJ) (Joule)
system.mem_ctrls.dram.rank1.selfRefreshEnergy            0                       # Energy for self refresh per rank (pJ) (Joule)
system.mem_ctrls.dram.rank1.totalEnergy    4892387895                       # Total energy per rank (pJ) (Joule)
system.mem_ctrls.dram.rank1.averagePower   523.324357                       # Core power per rank (mW) (Watt)
system.mem_ctrls.dram.rank1.totalIdleTime            0                       # Total Idle time Per DRAM Rank (Tick)
system.mem_ctrls.dram.rank1.pwrStateTime::IDLE   5225804589                       # Time in different power states (Tick)
system.mem_ctrls.dram.rank1.pwrStateTime::REF    312000000                       # Time in different power states (Tick)
system.mem_ctrls.dram.rank1.pwrStateTime::SREF            0                       # Time in different power states (Tick)
system.mem_ctrls.dram.rank1.pwrStateTime::PRE_PDN            0                       # Time in different power states (Tick)
system.mem_ctrls.dram.rank1.pwrStateTime::ACT   3810867660                       # Time in different power states (Tick)
system.mem_ctrls.dram.rank1.pwrStateTime::ACT_PDN            0                       # Time in different power states (Tick)
system.mem_ctrls.power_state.pwrStateResidencyTicks::UNDEFINED   9348672249                       # Cumulative time (in ticks) in various power states (Tick)
system.membus.transDist::ReadResp                1622                       # Transaction distribution (Count)
system.membus.transDist::UpgradeReq               349                       # Transaction distribution (Count)
system.membus.transDist::ReadExReq              49994                       # Transaction distribution (Count)
system.membus.transDist::ReadExResp             49964                       # Transaction distribution (Count)
system.membus.transDist::ReadSharedReq           1622                       # Transaction distribution (Count)
system.membus.pktCount_system.l3.mem_side_port::system.mem_ctrls.port       103551                       # Packet count per connected requestor and responder (Count)
system.membus.pktCount_system.l3.mem_side_port::total       103551                       # Packet count per connected requestor and responder (Count)
system.membus.pktCount::total                  103551                       # Packet count per connected requestor and responder (Count)
system.membus.pktSize_system.l3.mem_side_port::system.mem_ctrls.port      3301504                       # Cumulative packet size per connected requestor and responder (Byte)
system.membus.pktSize_system.l3.mem_side_port::total      3301504                       # Cumulative packet size per connected requestor and responder (Byte)
system.membus.pktSize::total                  3301504                       # Cumulative packet size per connected requestor and responder (Byte)
system.membus.snoops                              379                       # Total snoops (Count)
system.membus.snoopTraffic                          0                       # Total snoop traffic (Byte)
system.membus.snoopFanout::samples              51965                       # Request fanout histogram (Count)
system.membus.snoopFanout::mean                     0                       # Request fanout histogram (Count)
system.membus.snoopFanout::stdev                    0                       # Request fanout histogram (Count)
system.membus.snoopFanout::underflows               0      0.00%      0.00% # Request fanout histogram (Count)
system.membus.snoopFanout::0                    51965    100.00%    100.00% # Request fanout histogram (Count)
system.membus.snoopFanout::1                        0      0.00%    100.00% # Request fanout histogram (Count)
system.membus.snoopFanout::overflows                0      0.00%    100.00% # Request fanout histogram (Count)
system.membus.snoopFanout::min_value                0                       # Request fanout histogram (Count)
system.membus.snoopFanout::max_value                0                       # Request fanout histogram (Count)
system.membus.snoopFanout::total                51965                       # Request fanout histogram (Count)
system.membus.power_state.pwrStateResidencyTicks::UNDEFINED   9348672249                       # Cumulative time (in ticks) in various power states (Tick)
system.membus.reqLayer4.occupancy            80414471                       # Layer occupancy (ticks) (Tick)
system.membus.reqLayer4.utilization               0.0                       # Layer utilization (Ratio)
system.membus.respLayer1.occupancy          277036292                       # Layer occupancy (ticks) (Tick)
system.membus.respLayer1.utilization              0.0                       # Layer utilization (Ratio)
system.membus.snoop_filter.totRequests          51965                       # Total number of requests made to the snoop filter. (Count)
system.membus.snoop_filter.hitSingleRequests          379                       # Number of requests hitting in the snoop filter with a single holder of the requested data. (Count)
system.membus.snoop_filter.hitMultiRequests            0                       # Number of requests hitting in the snoop filter with multiple (>1) holders of the requested data. (Count)
system.membus.snoop_filter.totSnoops                0                       # Total number of snoops made to the snoop filter. (Count)
system.membus.snoop_filter.hitSingleSnoops            0                       # Number of snoops hitting in the snoop filter with a single holder of the requested data. (Count)
system.membus.snoop_filter.hitMultiSnoops            0                       # Number of snoops hitting in the snoop filter with multiple (>1) holders of the requested data. (Count)
system.tollcbus.transDist::ReadResp             42716                       # Transaction distribution (Count)
system.tollcbus.transDist::WritebackDirty        23866                       # Transaction distribution (Count)
system.tollcbus.transDist::CleanEvict            3878                       # Transaction distribution (Count)
system.tollcbus.transDist::UpgradeReq           10583                       # Transaction distribution (Count)
system.tollcbus.transDist::UpgradeResp          10583                       # Transaction distribution (Count)
system.tollcbus.transDist::ReadExReq            58752                       # Transaction distribution (Count)
system.tollcbus.transDist::ReadExResp           58752                       # Transaction distribution (Count)
system.tollcbus.transDist::ReadSharedReq        42716                       # Transaction distribution (Count)
system.tollcbus.pktCount_system.cpu0.l2.mem_side_port::system.l3.cpu_side_port       147926                       # Packet count per connected requestor and responder (Count)
system.tollcbus.pktCount_system.cpu1.l2.mem_side_port::system.l3.cpu_side_port        70960                       # Packet count per connected requestor and responder (Count)
system.tollcbus.pktCount::total                218886                       # Packet count per connected requestor and responder (Count)
system.tollcbus.pktSize_system.cpu0.l2.mem_side_port::system.l3.cpu_side_port      4842752                       # Cumulative packet size per connected requestor and responder (Byte)
system.tollcbus.pktSize_system.cpu1.l2.mem_side_port::system.l3.cpu_side_port      1091520                       # Cumulative packet size per connected requestor and responder (Byte)
system.tollcbus.pktSize::total                5934272                       # Cumulative packet size per connected requestor and responder (Byte)
system.tollcbus.snoops                          32960                       # Total snoops (Count)
system.tollcbus.snoopTraffic                  2087104                       # Total snoop traffic (Byte)
system.tollcbus.snoopFanout::samples           112051                       # Request fanout histogram (Count)
system.tollcbus.snoopFanout::mean            0.383468                       # Request fanout histogram (Count)
system.tollcbus.snoopFanout::stdev           0.486233                       # Request fanout histogram (Count)
system.tollcbus.snoopFanout::underflows             0      0.00%      0.00% # Request fanout histogram (Count)
system.tollcbus.snoopFanout::0                  69083     61.65%     61.65% # Request fanout histogram (Count)
system.tollcbus.snoopFanout::1                  42968     38.35%    100.00% # Request fanout histogram (Count)
system.tollcbus.snoopFanout::2                      0      0.00%    100.00% # Request fanout histogram (Count)
system.tollcbus.snoopFanout::overflows              0      0.00%    100.00% # Request fanout histogram (Count)
system.tollcbus.snoopFanout::min_value              0                       # Request fanout histogram (Count)
system.tollcbus.snoopFanout::max_value              1                       # Request fanout histogram (Count)
system.tollcbus.snoopFanout::total             112051                       # Request fanout histogram (Count)
system.tollcbus.power_state.pwrStateResidencyTicks::UNDEFINED   9348672249                       # Cumulative time (in ticks) in various power states (Tick)
system.tollcbus.reqLayer0.occupancy          66947139                       # Layer occupancy (ticks) (Tick)
system.tollcbus.reqLayer0.utilization             0.0                       # Layer utilization (Ratio)
system.tollcbus.respLayer0.occupancy         68829947                       # Layer occupancy (ticks) (Tick)
system.tollcbus.respLayer0.utilization            0.0                       # Layer utilization (Ratio)
system.tollcbus.respLayer1.occupancy         43628956                       # Layer occupancy (ticks) (Tick)
system.tollcbus.respLayer1.utilization            0.0                       # Layer utilization (Ratio)
system.tollcbus.snoop_filter.totRequests       139795                       # Total number of requests made to the snoop filter. (Count)
system.tollcbus.snoop_filter.hitSingleRequests        54699                       # Number of requests hitting in the snoop filter with a single holder of the requested data. (Count)
system.tollcbus.snoop_filter.hitMultiRequests        18283                       # Number of requests hitting in the snoop filter with multiple (>1) holders of the requested data. (Count)
system.tollcbus.snoop_filter.totSnoops              0                       # Total number of snoops made to the snoop filter. (Count)
system.tollcbus.snoop_filter.hitSingleSnoops            0                       # Number of snoops hitting in the snoop filter with a single holder of the requested data. (Count)
system.tollcbus.snoop_filter.hitMultiSnoops            0                       # Number of snoops hitting in the snoop filter with multiple (>1) holders of the requested data. (Count)
system.voltage_domain.voltage                       1                       # Voltage in Volts (Volt)
system.workload.inst.arm                            0                       # number of arm instructions executed (Count)
system.workload.inst.quiesce                        0                       # number of quiesce instructions executed (Count)

---------- End Simulation Statistics   ----------
