
---------- Begin Simulation Statistics ----------
simSeconds                                   0.019000                       # Number of seconds simulated (Second)
simTicks                                  19000363599                       # Number of ticks simulated (Tick)
finalTick                                 19000363599                       # Number of ticks from beginning of simulation (restored from checkpoints and never reset) (Tick)
simFreq                                  1000000000000                       # The number of ticks per simulated second ((Tick/Second))
hostSeconds                                    701.47                       # Real time elapsed on the host (Second)
hostTickRate                                 27086309                       # The number of ticks simulated per host second (ticks/s) ((Tick/Second))
hostMemory                                     752144                       # Number of bytes of host memory used (Byte)
simInsts                                    218486170                       # Number of instructions simulated (Count)
simOps                                      347961072                       # Number of ops (including micro ops) simulated (Count)
hostInstRate                                   311467                       # Simulator instruction rate (inst/s) ((Count/Second))
hostOpRate                                     496042                       # Simulator op (including micro ops) rate (op/s) ((Count/Second))
system.clk_domain.clock                          1000                       # Clock period in ticks (Tick)
system.cpu0.numCycles                        50687738                       # Number of cpu cycles simulated (Cycle)
system.cpu0.numWorkItemsStarted                     0                       # Number of work items this cpu started (Count)
system.cpu0.numWorkItemsCompleted                   0                       # Number of work items this cpu completed (Count)
system.cpu0.instsAdded                      181175549                       # Number of instructions added to the IQ (excludes non-spec) (Count)
system.cpu0.nonSpecInstsAdded                  259999                       # Number of non-speculative instructions added to the IQ (Count)
system.cpu0.instsIssued                     177932707                       # Number of instructions issued (Count)
system.cpu0.squashedInstsIssued                 14887                       # Number of squashed instructions issued (Count)
system.cpu0.squashedInstsExamined             8908169                       # Number of squashed instructions iterated over during squash; mainly for profiling (Count)
system.cpu0.squashedOperandsExamined         15298761                       # Number of squashed operands that are examined and possibly removed from graph (Count)
system.cpu0.squashedNonSpecRemoved              96445                       # Number of squashed non-spec instructions that were removed (Count)
system.cpu0.numIssuedDist::samples           50496308                       # Number of insts issued each cycle (Count)
system.cpu0.numIssuedDist::mean              3.523678                       # Number of insts issued each cycle (Count)
system.cpu0.numIssuedDist::stdev             2.551236                       # Number of insts issued each cycle (Count)
system.cpu0.numIssuedDist::underflows               0      0.00%      0.00% # Number of insts issued each cycle (Count)
system.cpu0.numIssuedDist::0                  8660999     17.15%     17.15% # Number of insts issued each cycle (Count)
system.cpu0.numIssuedDist::1                  4071552      8.06%     25.21% # Number of insts issued each cycle (Count)
system.cpu0.numIssuedDist::2                  5662948     11.21%     36.43% # Number of insts issued each cycle (Count)
system.cpu0.numIssuedDist::3                  7660286     15.17%     51.60% # Number of insts issued each cycle (Count)
system.cpu0.numIssuedDist::4                  8839755     17.51%     69.11% # Number of insts issued each cycle (Count)
system.cpu0.numIssuedDist::5                  3829272      7.58%     76.69% # Number of insts issued each cycle (Count)
system.cpu0.numIssuedDist::6                  3141367      6.22%     82.91% # Number of insts issued each cycle (Count)
system.cpu0.numIssuedDist::7                  2840213      5.62%     88.53% # Number of insts issued each cycle (Count)
system.cpu0.numIssuedDist::8                  5789916     11.47%    100.00% # Number of insts issued each cycle (Count)
system.cpu0.numIssuedDist::overflows                0      0.00%    100.00% # Number of insts issued each cycle (Count)
system.cpu0.numIssuedDist::min_value                0                       # Number of insts issued each cycle (Count)
system.cpu0.numIssuedDist::max_value                8                       # Number of insts issued each cycle (Count)
system.cpu0.numIssuedDist::total             50496308                       # Number of insts issued each cycle (Count)
system.cpu0.statFuBusy::No_OpClass                  0      0.00%      0.00% # attempts to use FU when none available (Count)
system.cpu0.statFuBusy::IntAlu                 348851     53.34%     53.34% # attempts to use FU when none available (Count)
system.cpu0.statFuBusy::IntMult                     0      0.00%     53.34% # attempts to use FU when none available (Count)
system.cpu0.statFuBusy::IntDiv                      0      0.00%     53.34% # attempts to use FU when none available (Count)
system.cpu0.statFuBusy::FloatAdd                   12      0.00%     53.34% # attempts to use FU when none available (Count)
system.cpu0.statFuBusy::FloatCmp                    0      0.00%     53.34% # attempts to use FU when none available (Count)
system.cpu0.statFuBusy::FloatCvt                    0      0.00%     53.34% # attempts to use FU when none available (Count)
system.cpu0.statFuBusy::FloatMult                   0      0.00%     53.34% # attempts to use FU when none available (Count)
system.cpu0.statFuBusy::FloatMultAcc                0      0.00%     53.34% # attempts to use FU when none available (Count)
system.cpu0.statFuBusy::FloatDiv                    0      0.00%     53.34% # attempts to use FU when none available (Count)
system.cpu0.statFuBusy::FloatMisc                   0      0.00%     53.34% # attempts to use FU when none available (Count)
system.cpu0.statFuBusy::FloatSqrt                   0      0.00%     53.34% # attempts to use FU when none available (Count)
system.cpu0.statFuBusy::SimdAdd                     0      0.00%     53.34% # attempts to use FU when none available (Count)
system.cpu0.statFuBusy::SimdAddAcc                  0      0.00%     53.34% # attempts to use FU when none available (Count)
system.cpu0.statFuBusy::SimdAlu                  1711      0.26%     53.60% # attempts to use FU when none available (Count)
system.cpu0.statFuBusy::SimdCmp                     6      0.00%     53.61% # attempts to use FU when none available (Count)
system.cpu0.statFuBusy::SimdCvt                    39      0.01%     53.61% # attempts to use FU when none available (Count)
system.cpu0.statFuBusy::SimdMisc                 5671      0.87%     54.48% # attempts to use FU when none available (Count)
system.cpu0.statFuBusy::SimdMult                    0      0.00%     54.48% # attempts to use FU when none available (Count)
system.cpu0.statFuBusy::SimdMultAcc                 0      0.00%     54.48% # attempts to use FU when none available (Count)
system.cpu0.statFuBusy::SimdShift                   0      0.00%     54.48% # attempts to use FU when none available (Count)
system.cpu0.statFuBusy::SimdShiftAcc                0      0.00%     54.48% # attempts to use FU when none available (Count)
system.cpu0.statFuBusy::SimdDiv                     0      0.00%     54.48% # attempts to use FU when none available (Count)
system.cpu0.statFuBusy::SimdSqrt                    0      0.00%     54.48% # attempts to use FU when none available (Count)
system.cpu0.statFuBusy::SimdFloatAdd             1117      0.17%     54.65% # attempts to use FU when none available (Count)
system.cpu0.statFuBusy::SimdFloatAlu                0      0.00%     54.65% # attempts to use FU when none available (Count)
system.cpu0.statFuBusy::SimdFloatCmp                0      0.00%     54.65% # attempts to use FU when none available (Count)
system.cpu0.statFuBusy::SimdFloatCvt                0      0.00%     54.65% # attempts to use FU when none available (Count)
system.cpu0.statFuBusy::SimdFloatDiv              149      0.02%     54.67% # attempts to use FU when none available (Count)
system.cpu0.statFuBusy::SimdFloatMisc               0      0.00%     54.67% # attempts to use FU when none available (Count)
system.cpu0.statFuBusy::SimdFloatMult           29181      4.46%     59.13% # attempts to use FU when none available (Count)
system.cpu0.statFuBusy::SimdFloatMultAcc            0      0.00%     59.13% # attempts to use FU when none available (Count)
system.cpu0.statFuBusy::SimdFloatSqrt               0      0.00%     59.13% # attempts to use FU when none available (Count)
system.cpu0.statFuBusy::SimdReduceAdd               0      0.00%     59.13% # attempts to use FU when none available (Count)
system.cpu0.statFuBusy::SimdReduceAlu               0      0.00%     59.13% # attempts to use FU when none available (Count)
system.cpu0.statFuBusy::SimdReduceCmp               0      0.00%     59.13% # attempts to use FU when none available (Count)
system.cpu0.statFuBusy::SimdFloatReduceAdd            0      0.00%     59.13% # attempts to use FU when none available (Count)
system.cpu0.statFuBusy::SimdFloatReduceCmp            0      0.00%     59.13% # attempts to use FU when none available (Count)
system.cpu0.statFuBusy::SimdAes                     0      0.00%     59.13% # attempts to use FU when none available (Count)
system.cpu0.statFuBusy::SimdAesMix                  0      0.00%     59.13% # attempts to use FU when none available (Count)
system.cpu0.statFuBusy::SimdSha1Hash                0      0.00%     59.13% # attempts to use FU when none available (Count)
system.cpu0.statFuBusy::SimdSha1Hash2               0      0.00%     59.13% # attempts to use FU when none available (Count)
system.cpu0.statFuBusy::SimdSha256Hash              0      0.00%     59.13% # attempts to use FU when none available (Count)
system.cpu0.statFuBusy::SimdSha256Hash2             0      0.00%     59.13% # attempts to use FU when none available (Count)
system.cpu0.statFuBusy::SimdShaSigma2               0      0.00%     59.13% # attempts to use FU when none available (Count)
system.cpu0.statFuBusy::SimdShaSigma3               0      0.00%     59.13% # attempts to use FU when none available (Count)
system.cpu0.statFuBusy::SimdPredAlu                 0      0.00%     59.13% # attempts to use FU when none available (Count)
system.cpu0.statFuBusy::MemRead                100851     15.42%     74.55% # attempts to use FU when none available (Count)
system.cpu0.statFuBusy::MemWrite                97211     14.86%     89.42% # attempts to use FU when none available (Count)
system.cpu0.statFuBusy::FloatMemRead            66353     10.15%     99.56% # attempts to use FU when none available (Count)
system.cpu0.statFuBusy::FloatMemWrite            2848      0.44%    100.00% # attempts to use FU when none available (Count)
system.cpu0.statFuBusy::IprAccess                   0      0.00%    100.00% # attempts to use FU when none available (Count)
system.cpu0.statFuBusy::InstPrefetch                0      0.00%    100.00% # attempts to use FU when none available (Count)
system.cpu0.statIssuedInstType_0::No_OpClass       132852      0.07%      0.07% # Number of instructions issued per FU type, per thread (Count)
system.cpu0.statIssuedInstType_0::IntAlu     97851397     54.99%     55.07% # Number of instructions issued per FU type, per thread (Count)
system.cpu0.statIssuedInstType_0::IntMult         8871      0.00%     55.07% # Number of instructions issued per FU type, per thread (Count)
system.cpu0.statIssuedInstType_0::IntDiv         8104      0.00%     55.08% # Number of instructions issued per FU type, per thread (Count)
system.cpu0.statIssuedInstType_0::FloatAdd     11470239      6.45%     61.52% # Number of instructions issued per FU type, per thread (Count)
system.cpu0.statIssuedInstType_0::FloatCmp            0      0.00%     61.52% # Number of instructions issued per FU type, per thread (Count)
system.cpu0.statIssuedInstType_0::FloatCvt            0      0.00%     61.52% # Number of instructions issued per FU type, per thread (Count)
system.cpu0.statIssuedInstType_0::FloatMult            0      0.00%     61.52% # Number of instructions issued per FU type, per thread (Count)
system.cpu0.statIssuedInstType_0::FloatMultAcc            0      0.00%     61.52% # Number of instructions issued per FU type, per thread (Count)
system.cpu0.statIssuedInstType_0::FloatDiv            0      0.00%     61.52% # Number of instructions issued per FU type, per thread (Count)
system.cpu0.statIssuedInstType_0::FloatMisc            0      0.00%     61.52% # Number of instructions issued per FU type, per thread (Count)
system.cpu0.statIssuedInstType_0::FloatSqrt            0      0.00%     61.52% # Number of instructions issued per FU type, per thread (Count)
system.cpu0.statIssuedInstType_0::SimdAdd          378      0.00%     61.52% # Number of instructions issued per FU type, per thread (Count)
system.cpu0.statIssuedInstType_0::SimdAddAcc            0      0.00%     61.52% # Number of instructions issued per FU type, per thread (Count)
system.cpu0.statIssuedInstType_0::SimdAlu       802781      0.45%     61.98% # Number of instructions issued per FU type, per thread (Count)
system.cpu0.statIssuedInstType_0::SimdCmp           42      0.00%     61.98% # Number of instructions issued per FU type, per thread (Count)
system.cpu0.statIssuedInstType_0::SimdCvt          933      0.00%     61.98% # Number of instructions issued per FU type, per thread (Count)
system.cpu0.statIssuedInstType_0::SimdMisc       263668      0.15%     62.12% # Number of instructions issued per FU type, per thread (Count)
system.cpu0.statIssuedInstType_0::SimdMult            0      0.00%     62.12% # Number of instructions issued per FU type, per thread (Count)
system.cpu0.statIssuedInstType_0::SimdMultAcc            0      0.00%     62.12% # Number of instructions issued per FU type, per thread (Count)
system.cpu0.statIssuedInstType_0::SimdShift          186      0.00%     62.12% # Number of instructions issued per FU type, per thread (Count)
system.cpu0.statIssuedInstType_0::SimdShiftAcc            0      0.00%     62.12% # Number of instructions issued per FU type, per thread (Count)
system.cpu0.statIssuedInstType_0::SimdDiv            0      0.00%     62.12% # Number of instructions issued per FU type, per thread (Count)
system.cpu0.statIssuedInstType_0::SimdSqrt            0      0.00%     62.12% # Number of instructions issued per FU type, per thread (Count)
system.cpu0.statIssuedInstType_0::SimdFloatAdd     21676989     12.18%     74.31% # Number of instructions issued per FU type, per thread (Count)
system.cpu0.statIssuedInstType_0::SimdFloatAlu            0      0.00%     74.31% # Number of instructions issued per FU type, per thread (Count)
system.cpu0.statIssuedInstType_0::SimdFloatCmp           19      0.00%     74.31% # Number of instructions issued per FU type, per thread (Count)
system.cpu0.statIssuedInstType_0::SimdFloatCvt       454555      0.26%     74.56% # Number of instructions issued per FU type, per thread (Count)
system.cpu0.statIssuedInstType_0::SimdFloatDiv       723520      0.41%     74.97% # Number of instructions issued per FU type, per thread (Count)
system.cpu0.statIssuedInstType_0::SimdFloatMisc            0      0.00%     74.97% # Number of instructions issued per FU type, per thread (Count)
system.cpu0.statIssuedInstType_0::SimdFloatMult     24237437     13.62%     88.59% # Number of instructions issued per FU type, per thread (Count)
system.cpu0.statIssuedInstType_0::SimdFloatMultAcc            0      0.00%     88.59% # Number of instructions issued per FU type, per thread (Count)
system.cpu0.statIssuedInstType_0::SimdFloatSqrt         5846      0.00%     88.59% # Number of instructions issued per FU type, per thread (Count)
system.cpu0.statIssuedInstType_0::SimdReduceAdd            0      0.00%     88.59% # Number of instructions issued per FU type, per thread (Count)
system.cpu0.statIssuedInstType_0::SimdReduceAlu            0      0.00%     88.59% # Number of instructions issued per FU type, per thread (Count)
system.cpu0.statIssuedInstType_0::SimdReduceCmp            0      0.00%     88.59% # Number of instructions issued per FU type, per thread (Count)
system.cpu0.statIssuedInstType_0::SimdFloatReduceAdd            0      0.00%     88.59% # Number of instructions issued per FU type, per thread (Count)
system.cpu0.statIssuedInstType_0::SimdFloatReduceCmp            0      0.00%     88.59% # Number of instructions issued per FU type, per thread (Count)
system.cpu0.statIssuedInstType_0::SimdAes            0      0.00%     88.59% # Number of instructions issued per FU type, per thread (Count)
system.cpu0.statIssuedInstType_0::SimdAesMix            0      0.00%     88.59% # Number of instructions issued per FU type, per thread (Count)
system.cpu0.statIssuedInstType_0::SimdSha1Hash            0      0.00%     88.59% # Number of instructions issued per FU type, per thread (Count)
system.cpu0.statIssuedInstType_0::SimdSha1Hash2            0      0.00%     88.59% # Number of instructions issued per FU type, per thread (Count)
system.cpu0.statIssuedInstType_0::SimdSha256Hash            0      0.00%     88.59% # Number of instructions issued per FU type, per thread (Count)
system.cpu0.statIssuedInstType_0::SimdSha256Hash2            0      0.00%     88.59% # Number of instructions issued per FU type, per thread (Count)
system.cpu0.statIssuedInstType_0::SimdShaSigma2            0      0.00%     88.59% # Number of instructions issued per FU type, per thread (Count)
system.cpu0.statIssuedInstType_0::SimdShaSigma3            0      0.00%     88.59% # Number of instructions issued per FU type, per thread (Count)
system.cpu0.statIssuedInstType_0::SimdPredAlu            0      0.00%     88.59% # Number of instructions issued per FU type, per thread (Count)
system.cpu0.statIssuedInstType_0::MemRead      2567343      1.44%     90.04% # Number of instructions issued per FU type, per thread (Count)
system.cpu0.statIssuedInstType_0::MemWrite      1046962      0.59%     90.63% # Number of instructions issued per FU type, per thread (Count)
system.cpu0.statIssuedInstType_0::FloatMemRead     14239869      8.00%     98.63% # Number of instructions issued per FU type, per thread (Count)
system.cpu0.statIssuedInstType_0::FloatMemWrite      2440716      1.37%    100.00% # Number of instructions issued per FU type, per thread (Count)
system.cpu0.statIssuedInstType_0::IprAccess            0      0.00%    100.00% # Number of instructions issued per FU type, per thread (Count)
system.cpu0.statIssuedInstType_0::InstPrefetch            0      0.00%    100.00% # Number of instructions issued per FU type, per thread (Count)
system.cpu0.statIssuedInstType_0::total     177932707                       # Number of instructions issued per FU type, per thread (Count)
system.cpu0.issueRate                        3.510370                       # Inst issue rate ((Count/Cycle))
system.cpu0.fuBusy                             654000                       # FU busy when requested (Count)
system.cpu0.fuBusyRate                       0.003676                       # FU busy rate (busy events/executed inst) ((Count/Count))
system.cpu0.intInstQueueReads               188751721                       # Number of integer instruction queue reads (Count)
system.cpu0.intInstQueueWrites               75467302                       # Number of integer instruction queue writes (Count)
system.cpu0.intInstQueueWakeupAccesses       68276117                       # Number of integer instruction queue wakeup accesses (Count)
system.cpu0.fpInstQueueReads                218278888                       # Number of floating instruction queue reads (Count)
system.cpu0.fpInstQueueWrites               114905509                       # Number of floating instruction queue writes (Count)
system.cpu0.fpInstQueueWakeupAccesses       108480256                       # Number of floating instruction queue wakeup accesses (Count)
system.cpu0.vecInstQueueReads                       0                       # Number of vector instruction queue reads (Count)
system.cpu0.vecInstQueueWrites                      0                       # Number of vector instruction queue writes (Count)
system.cpu0.vecInstQueueWakeupAccesses              0                       # Number of vector instruction queue wakeup accesses (Count)
system.cpu0.intAluAccesses                   69216290                       # Number of integer alu accesses (Count)
system.cpu0.fpAluAccesses                   109237565                       # Number of floating point alu accesses (Count)
system.cpu0.vecAluAccesses                          0                       # Number of vector alu accesses (Count)
system.cpu0.numInsts                        177202162                       # Number of executed instructions (Count)
system.cpu0.numLoadInsts                     16743422                       # Number of load instructions executed (Count)
system.cpu0.numSquashedInsts                   730545                       # Number of squashed instructions skipped in execute (Count)
system.cpu0.numSwp                                  0                       # Number of swp insts executed (Count)
system.cpu0.numNop                                  0                       # Number of nop insts executed (Count)
system.cpu0.numRefs                          20198757                       # Number of memory reference insts executed (Count)
system.cpu0.numBranches                       9692457                       # Number of branches executed (Count)
system.cpu0.numStoreInsts                     3455335                       # Number of stores executed (Count)
system.cpu0.numRate                          3.495957                       # Inst execution rate ((Count/Cycle))
system.cpu0.timesIdled                           2232                       # Number of times that the entire CPU went into an idle state and unscheduled itself (Count)
system.cpu0.idleCycles                         191430                       # Total number of cycles that the CPU has spent unscheduled due to idling (Cycle)
system.cpu0.quiesceCycles                     2534570                       # Total number of cycles that CPU has spent quiesced or waiting for an interrupt (Cycle)
system.cpu0.committedInsts                  108230165                       # Number of Instructions Simulated (Count)
system.cpu0.committedOps                    172527373                       # Number of Ops (including micro ops) Simulated (Count)
system.cpu0.cpi                              0.468333                       # CPI: Cycles Per Instruction ((Cycle/Count))
system.cpu0.totalCpi                         0.468333                       # CPI: Total CPI of All Threads ((Cycle/Count))
system.cpu0.ipc                              2.135234                       # IPC: Instructions Per Cycle ((Count/Cycle))
system.cpu0.totalIpc                         2.135234                       # IPC: Total IPC of All Threads ((Count/Cycle))
system.cpu0.intRegfileReads                  85456203                       # Number of integer regfile reads (Count)
system.cpu0.intRegfileWrites                 49962848                       # Number of integer regfile writes (Count)
system.cpu0.fpRegfileReads                  210332909                       # Number of floating regfile reads (Count)
system.cpu0.fpRegfileWrites                 105897586                       # Number of floating regfile writes (Count)
system.cpu0.ccRegfileReads                   44050933                       # number of cc regfile reads (Count)
system.cpu0.ccRegfileWrites                  37357290                       # number of cc regfile writes (Count)
system.cpu0.miscRegfileReads                 40194410                       # number of misc regfile reads (Count)
system.cpu0.MemDepUnit__0.insertedLoads      17259190                       # Number of loads inserted to the mem dependence unit. (Count)
system.cpu0.MemDepUnit__0.insertedStores      3737229                       # Number of stores inserted to the mem dependence unit. (Count)
system.cpu0.MemDepUnit__0.conflictingLoads      1904674                       # Number of conflicting loads. (Count)
system.cpu0.MemDepUnit__0.conflictingStores      1325021                       # Number of conflicting stores. (Count)
system.cpu0.MemDepUnit__1.insertedLoads             0                       # Number of loads inserted to the mem dependence unit. (Count)
system.cpu0.MemDepUnit__1.insertedStores            0                       # Number of stores inserted to the mem dependence unit. (Count)
system.cpu0.MemDepUnit__1.conflictingLoads            0                       # Number of conflicting loads. (Count)
system.cpu0.MemDepUnit__1.conflictingStores            0                       # Number of conflicting stores. (Count)
system.cpu0.MemDepUnit__2.insertedLoads             0                       # Number of loads inserted to the mem dependence unit. (Count)
system.cpu0.MemDepUnit__2.insertedStores            0                       # Number of stores inserted to the mem dependence unit. (Count)
system.cpu0.MemDepUnit__2.conflictingLoads            0                       # Number of conflicting loads. (Count)
system.cpu0.MemDepUnit__2.conflictingStores            0                       # Number of conflicting stores. (Count)
system.cpu0.MemDepUnit__3.insertedLoads             0                       # Number of loads inserted to the mem dependence unit. (Count)
system.cpu0.MemDepUnit__3.insertedStores            0                       # Number of stores inserted to the mem dependence unit. (Count)
system.cpu0.MemDepUnit__3.conflictingLoads            0                       # Number of conflicting loads. (Count)
system.cpu0.MemDepUnit__3.conflictingStores            0                       # Number of conflicting stores. (Count)
system.cpu0.branchPred.lookups               10574528                       # Number of BP lookups (Count)
system.cpu0.branchPred.condPredicted          8597037                       # Number of conditional branches predicted (Count)
system.cpu0.branchPred.condIncorrect           265491                       # Number of conditional branches incorrect (Count)
system.cpu0.branchPred.BTBLookups             5656823                       # Number of BTB lookups (Count)
system.cpu0.branchPred.BTBHits                5651357                       # Number of BTB hits (Count)
system.cpu0.branchPred.BTBHitRatio           0.999034                       # BTB Hit Ratio (Ratio)
system.cpu0.branchPred.RASUsed                 275369                       # Number of times the RAS was used to get a target. (Count)
system.cpu0.branchPred.RASIncorrect                 2                       # Number of incorrect RAS predictions. (Count)
system.cpu0.branchPred.indirectLookups          26224                       # Number of indirect predictor lookups. (Count)
system.cpu0.branchPred.indirectHits             23030                       # Number of indirect target hits. (Count)
system.cpu0.branchPred.indirectMisses            3194                       # Number of indirect misses. (Count)
system.cpu0.branchPred.indirectMispredicted          544                       # Number of mispredicted indirect branches. (Count)
system.cpu0.commit.commitSquashedInsts        8873866                       # The number of squashed insts skipped by commit (Count)
system.cpu0.commit.commitNonSpecStalls         163554                       # The number of times commit has been forced to stall to communicate backwards (Count)
system.cpu0.commit.branchMispredicts           264549                       # The number of times a branch was mispredicted (Count)
system.cpu0.commit.numCommittedDist::samples     49267453                       # Number of insts commited each cycle (Count)
system.cpu0.commit.numCommittedDist::mean     3.501853                       # Number of insts commited each cycle (Count)
system.cpu0.commit.numCommittedDist::stdev     2.878041                       # Number of insts commited each cycle (Count)
system.cpu0.commit.numCommittedDist::underflows            0      0.00%      0.00% # Number of insts commited each cycle (Count)
system.cpu0.commit.numCommittedDist::0       10305075     20.92%     20.92% # Number of insts commited each cycle (Count)
system.cpu0.commit.numCommittedDist::1        5289825     10.74%     31.65% # Number of insts commited each cycle (Count)
system.cpu0.commit.numCommittedDist::2        6365761     12.92%     44.57% # Number of insts commited each cycle (Count)
system.cpu0.commit.numCommittedDist::3        6959071     14.13%     58.70% # Number of insts commited each cycle (Count)
system.cpu0.commit.numCommittedDist::4        2090113      4.24%     62.94% # Number of insts commited each cycle (Count)
system.cpu0.commit.numCommittedDist::5        3842468      7.80%     70.74% # Number of insts commited each cycle (Count)
system.cpu0.commit.numCommittedDist::6        2886589      5.86%     76.60% # Number of insts commited each cycle (Count)
system.cpu0.commit.numCommittedDist::7        3491921      7.09%     83.69% # Number of insts commited each cycle (Count)
system.cpu0.commit.numCommittedDist::8        8036630     16.31%    100.00% # Number of insts commited each cycle (Count)
system.cpu0.commit.numCommittedDist::overflows            0      0.00%    100.00% # Number of insts commited each cycle (Count)
system.cpu0.commit.numCommittedDist::min_value            0                       # Number of insts commited each cycle (Count)
system.cpu0.commit.numCommittedDist::max_value            8                       # Number of insts commited each cycle (Count)
system.cpu0.commit.numCommittedDist::total     49267453                       # Number of insts commited each cycle (Count)
system.cpu0.commit.instsCommitted           108230165                       # Number of instructions committed (Count)
system.cpu0.commit.opsCommitted             172527373                       # Number of ops (including micro ops) committed (Count)
system.cpu0.commit.memRefs                   19205758                       # Number of memory references committed (Count)
system.cpu0.commit.loads                     15886590                       # Number of loads committed (Count)
system.cpu0.commit.amos                             0                       # Number of atomic instructions committed (Count)
system.cpu0.commit.membars                     109036                       # Number of memory barriers committed (Count)
system.cpu0.commit.branches                   9509384                       # Number of branches committed (Count)
system.cpu0.commit.vectorInstructions               0                       # Number of committed Vector instructions. (Count)
system.cpu0.commit.floating                 106895327                       # Number of committed floating point instructions. (Count)
system.cpu0.commit.integer                   81569799                       # Number of committed integer instructions. (Count)
system.cpu0.commit.functionCalls               177253                       # Number of function calls committed. (Count)
system.cpu0.commit.committedInstType_0::No_OpClass       118961      0.07%      0.07% # Class of committed instruction (Count)
system.cpu0.commit.committedInstType_0::IntAlu     94369360     54.70%     54.77% # Class of committed instruction (Count)
system.cpu0.commit.committedInstType_0::IntMult         4670      0.00%     54.77% # Class of committed instruction (Count)
system.cpu0.commit.committedInstType_0::IntDiv         7484      0.00%     54.77% # Class of committed instruction (Count)
system.cpu0.commit.committedInstType_0::FloatAdd     10828932      6.28%     61.05% # Class of committed instruction (Count)
system.cpu0.commit.committedInstType_0::FloatCmp            0      0.00%     61.05% # Class of committed instruction (Count)
system.cpu0.commit.committedInstType_0::FloatCvt            0      0.00%     61.05% # Class of committed instruction (Count)
system.cpu0.commit.committedInstType_0::FloatMult            0      0.00%     61.05% # Class of committed instruction (Count)
system.cpu0.commit.committedInstType_0::FloatMultAcc            0      0.00%     61.05% # Class of committed instruction (Count)
system.cpu0.commit.committedInstType_0::FloatDiv            0      0.00%     61.05% # Class of committed instruction (Count)
system.cpu0.commit.committedInstType_0::FloatMisc            0      0.00%     61.05% # Class of committed instruction (Count)
system.cpu0.commit.committedInstType_0::FloatSqrt            0      0.00%     61.05% # Class of committed instruction (Count)
system.cpu0.commit.committedInstType_0::SimdAdd          374      0.00%     61.05% # Class of committed instruction (Count)
system.cpu0.commit.committedInstType_0::SimdAddAcc            0      0.00%     61.05% # Class of committed instruction (Count)
system.cpu0.commit.committedInstType_0::SimdAlu       754134      0.44%     61.49% # Class of committed instruction (Count)
system.cpu0.commit.committedInstType_0::SimdCmp           42      0.00%     61.49% # Class of committed instruction (Count)
system.cpu0.commit.committedInstType_0::SimdCvt          876      0.00%     61.49% # Class of committed instruction (Count)
system.cpu0.commit.committedInstType_0::SimdMisc       255194      0.15%     61.64% # Class of committed instruction (Count)
system.cpu0.commit.committedInstType_0::SimdMult            0      0.00%     61.64% # Class of committed instruction (Count)
system.cpu0.commit.committedInstType_0::SimdMultAcc            0      0.00%     61.64% # Class of committed instruction (Count)
system.cpu0.commit.committedInstType_0::SimdShift          186      0.00%     61.64% # Class of committed instruction (Count)
system.cpu0.commit.committedInstType_0::SimdShiftAcc            0      0.00%     61.64% # Class of committed instruction (Count)
system.cpu0.commit.committedInstType_0::SimdDiv            0      0.00%     61.64% # Class of committed instruction (Count)
system.cpu0.commit.committedInstType_0::SimdSqrt            0      0.00%     61.64% # Class of committed instruction (Count)
system.cpu0.commit.committedInstType_0::SimdFloatAdd     21641799     12.54%     74.18% # Class of committed instruction (Count)
system.cpu0.commit.committedInstType_0::SimdFloatAlu            0      0.00%     74.18% # Class of committed instruction (Count)
system.cpu0.commit.committedInstType_0::SimdFloatCmp           11      0.00%     74.18% # Class of committed instruction (Count)
system.cpu0.commit.committedInstType_0::SimdFloatCvt       429526      0.25%     74.43% # Class of committed instruction (Count)
system.cpu0.commit.committedInstType_0::SimdFloatDiv       723222      0.42%     74.85% # Class of committed instruction (Count)
system.cpu0.commit.committedInstType_0::SimdFloatMisc            0      0.00%     74.85% # Class of committed instruction (Count)
system.cpu0.commit.committedInstType_0::SimdFloatMult     24181235     14.02%     88.86% # Class of committed instruction (Count)
system.cpu0.commit.committedInstType_0::SimdFloatMultAcc            0      0.00%     88.86% # Class of committed instruction (Count)
system.cpu0.commit.committedInstType_0::SimdFloatSqrt         5609      0.00%     88.87% # Class of committed instruction (Count)
system.cpu0.commit.committedInstType_0::SimdReduceAdd            0      0.00%     88.87% # Class of committed instruction (Count)
system.cpu0.commit.committedInstType_0::SimdReduceAlu            0      0.00%     88.87% # Class of committed instruction (Count)
system.cpu0.commit.committedInstType_0::SimdReduceCmp            0      0.00%     88.87% # Class of committed instruction (Count)
system.cpu0.commit.committedInstType_0::SimdFloatReduceAdd            0      0.00%     88.87% # Class of committed instruction (Count)
system.cpu0.commit.committedInstType_0::SimdFloatReduceCmp            0      0.00%     88.87% # Class of committed instruction (Count)
system.cpu0.commit.committedInstType_0::SimdAes            0      0.00%     88.87% # Class of committed instruction (Count)
system.cpu0.commit.committedInstType_0::SimdAesMix            0      0.00%     88.87% # Class of committed instruction (Count)
system.cpu0.commit.committedInstType_0::SimdSha1Hash            0      0.00%     88.87% # Class of committed instruction (Count)
system.cpu0.commit.committedInstType_0::SimdSha1Hash2            0      0.00%     88.87% # Class of committed instruction (Count)
system.cpu0.commit.committedInstType_0::SimdSha256Hash            0      0.00%     88.87% # Class of committed instruction (Count)
system.cpu0.commit.committedInstType_0::SimdSha256Hash2            0      0.00%     88.87% # Class of committed instruction (Count)
system.cpu0.commit.committedInstType_0::SimdShaSigma2            0      0.00%     88.87% # Class of committed instruction (Count)
system.cpu0.commit.committedInstType_0::SimdShaSigma3            0      0.00%     88.87% # Class of committed instruction (Count)
system.cpu0.commit.committedInstType_0::SimdPredAlu            0      0.00%     88.87% # Class of committed instruction (Count)
system.cpu0.commit.committedInstType_0::MemRead      2244744      1.30%     90.17% # Class of committed instruction (Count)
system.cpu0.commit.committedInstType_0::MemWrite       909170      0.53%     90.70% # Class of committed instruction (Count)
system.cpu0.commit.committedInstType_0::FloatMemRead     13641846      7.91%     98.60% # Class of committed instruction (Count)
system.cpu0.commit.committedInstType_0::FloatMemWrite      2409998      1.40%    100.00% # Class of committed instruction (Count)
system.cpu0.commit.committedInstType_0::IprAccess            0      0.00%    100.00% # Class of committed instruction (Count)
system.cpu0.commit.committedInstType_0::InstPrefetch            0      0.00%    100.00% # Class of committed instruction (Count)
system.cpu0.commit.committedInstType_0::total    172527373                       # Class of committed instruction (Count)
system.cpu0.commit.commitEligibleSamples      8036630                       # number cycles where commit BW limit reached (Cycle)
system.cpu0.dcache.demandHits::cpu0.data     19302435                       # number of demand (read+write) hits (Count)
system.cpu0.dcache.demandHits::total         19302435                       # number of demand (read+write) hits (Count)
system.cpu0.dcache.overallHits::cpu0.data     19302435                       # number of overall hits (Count)
system.cpu0.dcache.overallHits::total        19302435                       # number of overall hits (Count)
system.cpu0.dcache.demandMisses::cpu0.data       317312                       # number of demand (read+write) misses (Count)
system.cpu0.dcache.demandMisses::total         317312                       # number of demand (read+write) misses (Count)
system.cpu0.dcache.overallMisses::cpu0.data       317312                       # number of overall misses (Count)
system.cpu0.dcache.overallMisses::total        317312                       # number of overall misses (Count)
system.cpu0.dcache.demandMissLatency::cpu0.data   4698328827                       # number of demand (read+write) miss ticks (Tick)
system.cpu0.dcache.demandMissLatency::total   4698328827                       # number of demand (read+write) miss ticks (Tick)
system.cpu0.dcache.overallMissLatency::cpu0.data   4698328827                       # number of overall miss ticks (Tick)
system.cpu0.dcache.overallMissLatency::total   4698328827                       # number of overall miss ticks (Tick)
system.cpu0.dcache.demandAccesses::cpu0.data     19619747                       # number of demand (read+write) accesses (Count)
system.cpu0.dcache.demandAccesses::total     19619747                       # number of demand (read+write) accesses (Count)
system.cpu0.dcache.overallAccesses::cpu0.data     19619747                       # number of overall (read+write) accesses (Count)
system.cpu0.dcache.overallAccesses::total     19619747                       # number of overall (read+write) accesses (Count)
system.cpu0.dcache.demandMissRate::cpu0.data     0.016173                       # miss rate for demand accesses (Ratio)
system.cpu0.dcache.demandMissRate::total     0.016173                       # miss rate for demand accesses (Ratio)
system.cpu0.dcache.overallMissRate::cpu0.data     0.016173                       # miss rate for overall accesses (Ratio)
system.cpu0.dcache.overallMissRate::total     0.016173                       # miss rate for overall accesses (Ratio)
system.cpu0.dcache.demandAvgMissLatency::cpu0.data 14806.653474                       # average overall miss latency in ticks ((Tick/Count))
system.cpu0.dcache.demandAvgMissLatency::total 14806.653474                       # average overall miss latency in ticks ((Tick/Count))
system.cpu0.dcache.overallAvgMissLatency::cpu0.data 14806.653474                       # average overall miss latency ((Tick/Count))
system.cpu0.dcache.overallAvgMissLatency::total 14806.653474                       # average overall miss latency ((Tick/Count))
system.cpu0.dcache.blockedCycles::no_mshrs        78446                       # number of cycles access was blocked (Cycle)
system.cpu0.dcache.blockedCycles::no_targets            0                       # number of cycles access was blocked (Cycle)
system.cpu0.dcache.blockedCauses::no_mshrs         6553                       # number of times access was blocked (Count)
system.cpu0.dcache.blockedCauses::no_targets            0                       # number of times access was blocked (Count)
system.cpu0.dcache.avgBlocked::no_mshrs     11.971006                       # average number of cycles each access was blocked ((Cycle/Count))
system.cpu0.dcache.avgBlocked::no_targets          nan                       # average number of cycles each access was blocked ((Cycle/Count))
system.cpu0.dcache.writebacks::writebacks       104931                       # number of writebacks (Count)
system.cpu0.dcache.writebacks::total           104931                       # number of writebacks (Count)
system.cpu0.dcache.demandMshrHits::cpu0.data       158020                       # number of demand (read+write) MSHR hits (Count)
system.cpu0.dcache.demandMshrHits::total       158020                       # number of demand (read+write) MSHR hits (Count)
system.cpu0.dcache.overallMshrHits::cpu0.data       158020                       # number of overall MSHR hits (Count)
system.cpu0.dcache.overallMshrHits::total       158020                       # number of overall MSHR hits (Count)
system.cpu0.dcache.demandMshrMisses::cpu0.data       159292                       # number of demand (read+write) MSHR misses (Count)
system.cpu0.dcache.demandMshrMisses::total       159292                       # number of demand (read+write) MSHR misses (Count)
system.cpu0.dcache.overallMshrMisses::cpu0.data       159292                       # number of overall MSHR misses (Count)
system.cpu0.dcache.overallMshrMisses::total       159292                       # number of overall MSHR misses (Count)
system.cpu0.dcache.demandMshrMissLatency::cpu0.data   2754248200                       # number of demand (read+write) MSHR miss ticks (Tick)
system.cpu0.dcache.demandMshrMissLatency::total   2754248200                       # number of demand (read+write) MSHR miss ticks (Tick)
system.cpu0.dcache.overallMshrMissLatency::cpu0.data   2754248200                       # number of overall MSHR miss ticks (Tick)
system.cpu0.dcache.overallMshrMissLatency::total   2754248200                       # number of overall MSHR miss ticks (Tick)
system.cpu0.dcache.demandMshrMissRate::cpu0.data     0.008119                       # mshr miss ratio for demand accesses (Ratio)
system.cpu0.dcache.demandMshrMissRate::total     0.008119                       # mshr miss ratio for demand accesses (Ratio)
system.cpu0.dcache.overallMshrMissRate::cpu0.data     0.008119                       # mshr miss ratio for overall accesses (Ratio)
system.cpu0.dcache.overallMshrMissRate::total     0.008119                       # mshr miss ratio for overall accesses (Ratio)
system.cpu0.dcache.demandAvgMshrMissLatency::cpu0.data 17290.561987                       # average overall mshr miss latency ((Tick/Count))
system.cpu0.dcache.demandAvgMshrMissLatency::total 17290.561987                       # average overall mshr miss latency ((Tick/Count))
system.cpu0.dcache.overallAvgMshrMissLatency::cpu0.data 17290.561987                       # average overall mshr miss latency ((Tick/Count))
system.cpu0.dcache.overallAvgMshrMissLatency::total 17290.561987                       # average overall mshr miss latency ((Tick/Count))
system.cpu0.dcache.replacements                139331                       # number of replacements (Count)
system.cpu0.dcache.LockedRMWReadReq.hits::cpu0.data        46803                       # number of LockedRMWReadReq hits (Count)
system.cpu0.dcache.LockedRMWReadReq.hits::total        46803                       # number of LockedRMWReadReq hits (Count)
system.cpu0.dcache.LockedRMWReadReq.misses::cpu0.data         7715                       # number of LockedRMWReadReq misses (Count)
system.cpu0.dcache.LockedRMWReadReq.misses::total         7715                       # number of LockedRMWReadReq misses (Count)
system.cpu0.dcache.LockedRMWReadReq.missLatency::cpu0.data    200038881                       # number of LockedRMWReadReq miss ticks (Tick)
system.cpu0.dcache.LockedRMWReadReq.missLatency::total    200038881                       # number of LockedRMWReadReq miss ticks (Tick)
system.cpu0.dcache.LockedRMWReadReq.accesses::cpu0.data        54518                       # number of LockedRMWReadReq accesses(hits+misses) (Count)
system.cpu0.dcache.LockedRMWReadReq.accesses::total        54518                       # number of LockedRMWReadReq accesses(hits+misses) (Count)
system.cpu0.dcache.LockedRMWReadReq.missRate::cpu0.data     0.141513                       # miss rate for LockedRMWReadReq accesses (Ratio)
system.cpu0.dcache.LockedRMWReadReq.missRate::total     0.141513                       # miss rate for LockedRMWReadReq accesses (Ratio)
system.cpu0.dcache.LockedRMWReadReq.avgMissLatency::cpu0.data 25928.565262                       # average LockedRMWReadReq miss latency ((Tick/Count))
system.cpu0.dcache.LockedRMWReadReq.avgMissLatency::total 25928.565262                       # average LockedRMWReadReq miss latency ((Tick/Count))
system.cpu0.dcache.LockedRMWReadReq.mshrHits::cpu0.data            5                       # number of LockedRMWReadReq MSHR hits (Count)
system.cpu0.dcache.LockedRMWReadReq.mshrHits::total            5                       # number of LockedRMWReadReq MSHR hits (Count)
system.cpu0.dcache.LockedRMWReadReq.mshrMisses::cpu0.data         7710                       # number of LockedRMWReadReq MSHR misses (Count)
system.cpu0.dcache.LockedRMWReadReq.mshrMisses::total         7710                       # number of LockedRMWReadReq MSHR misses (Count)
system.cpu0.dcache.LockedRMWReadReq.mshrMissLatency::cpu0.data    558162003                       # number of LockedRMWReadReq MSHR miss ticks (Tick)
system.cpu0.dcache.LockedRMWReadReq.mshrMissLatency::total    558162003                       # number of LockedRMWReadReq MSHR miss ticks (Tick)
system.cpu0.dcache.LockedRMWReadReq.mshrMissRate::cpu0.data     0.141421                       # mshr miss rate for LockedRMWReadReq accesses (Ratio)
system.cpu0.dcache.LockedRMWReadReq.mshrMissRate::total     0.141421                       # mshr miss rate for LockedRMWReadReq accesses (Ratio)
system.cpu0.dcache.LockedRMWReadReq.avgMshrMissLatency::cpu0.data 72394.552918                       # average LockedRMWReadReq mshr miss latency ((Tick/Count))
system.cpu0.dcache.LockedRMWReadReq.avgMshrMissLatency::total 72394.552918                       # average LockedRMWReadReq mshr miss latency ((Tick/Count))
system.cpu0.dcache.LockedRMWWriteReq.hits::cpu0.data        54518                       # number of LockedRMWWriteReq hits (Count)
system.cpu0.dcache.LockedRMWWriteReq.hits::total        54518                       # number of LockedRMWWriteReq hits (Count)
system.cpu0.dcache.LockedRMWWriteReq.accesses::cpu0.data        54518                       # number of LockedRMWWriteReq accesses(hits+misses) (Count)
system.cpu0.dcache.LockedRMWWriteReq.accesses::total        54518                       # number of LockedRMWWriteReq accesses(hits+misses) (Count)
system.cpu0.dcache.ReadReq.hits::cpu0.data     16078018                       # number of ReadReq hits (Count)
system.cpu0.dcache.ReadReq.hits::total       16078018                       # number of ReadReq hits (Count)
system.cpu0.dcache.ReadReq.misses::cpu0.data       277067                       # number of ReadReq misses (Count)
system.cpu0.dcache.ReadReq.misses::total       277067                       # number of ReadReq misses (Count)
system.cpu0.dcache.ReadReq.missLatency::cpu0.data   3327920799                       # number of ReadReq miss ticks (Tick)
system.cpu0.dcache.ReadReq.missLatency::total   3327920799                       # number of ReadReq miss ticks (Tick)
system.cpu0.dcache.ReadReq.accesses::cpu0.data     16355085                       # number of ReadReq accesses(hits+misses) (Count)
system.cpu0.dcache.ReadReq.accesses::total     16355085                       # number of ReadReq accesses(hits+misses) (Count)
system.cpu0.dcache.ReadReq.missRate::cpu0.data     0.016941                       # miss rate for ReadReq accesses (Ratio)
system.cpu0.dcache.ReadReq.missRate::total     0.016941                       # miss rate for ReadReq accesses (Ratio)
system.cpu0.dcache.ReadReq.avgMissLatency::cpu0.data 12011.249261                       # average ReadReq miss latency ((Tick/Count))
system.cpu0.dcache.ReadReq.avgMissLatency::total 12011.249261                       # average ReadReq miss latency ((Tick/Count))
system.cpu0.dcache.ReadReq.mshrHits::cpu0.data       157572                       # number of ReadReq MSHR hits (Count)
system.cpu0.dcache.ReadReq.mshrHits::total       157572                       # number of ReadReq MSHR hits (Count)
system.cpu0.dcache.ReadReq.mshrMisses::cpu0.data       119495                       # number of ReadReq MSHR misses (Count)
system.cpu0.dcache.ReadReq.mshrMisses::total       119495                       # number of ReadReq MSHR misses (Count)
system.cpu0.dcache.ReadReq.mshrMissLatency::cpu0.data   1415404326                       # number of ReadReq MSHR miss ticks (Tick)
system.cpu0.dcache.ReadReq.mshrMissLatency::total   1415404326                       # number of ReadReq MSHR miss ticks (Tick)
system.cpu0.dcache.ReadReq.mshrMissRate::cpu0.data     0.007306                       # mshr miss rate for ReadReq accesses (Ratio)
system.cpu0.dcache.ReadReq.mshrMissRate::total     0.007306                       # mshr miss rate for ReadReq accesses (Ratio)
system.cpu0.dcache.ReadReq.avgMshrMissLatency::cpu0.data 11844.883267                       # average ReadReq mshr miss latency ((Tick/Count))
system.cpu0.dcache.ReadReq.avgMshrMissLatency::total 11844.883267                       # average ReadReq mshr miss latency ((Tick/Count))
system.cpu0.dcache.WriteReq.hits::cpu0.data      3224417                       # number of WriteReq hits (Count)
system.cpu0.dcache.WriteReq.hits::total       3224417                       # number of WriteReq hits (Count)
system.cpu0.dcache.WriteReq.misses::cpu0.data        40245                       # number of WriteReq misses (Count)
system.cpu0.dcache.WriteReq.misses::total        40245                       # number of WriteReq misses (Count)
system.cpu0.dcache.WriteReq.missLatency::cpu0.data   1370408028                       # number of WriteReq miss ticks (Tick)
system.cpu0.dcache.WriteReq.missLatency::total   1370408028                       # number of WriteReq miss ticks (Tick)
system.cpu0.dcache.WriteReq.accesses::cpu0.data      3264662                       # number of WriteReq accesses(hits+misses) (Count)
system.cpu0.dcache.WriteReq.accesses::total      3264662                       # number of WriteReq accesses(hits+misses) (Count)
system.cpu0.dcache.WriteReq.missRate::cpu0.data     0.012327                       # miss rate for WriteReq accesses (Ratio)
system.cpu0.dcache.WriteReq.missRate::total     0.012327                       # miss rate for WriteReq accesses (Ratio)
system.cpu0.dcache.WriteReq.avgMissLatency::cpu0.data 34051.634439                       # average WriteReq miss latency ((Tick/Count))
system.cpu0.dcache.WriteReq.avgMissLatency::total 34051.634439                       # average WriteReq miss latency ((Tick/Count))
system.cpu0.dcache.WriteReq.mshrHits::cpu0.data          448                       # number of WriteReq MSHR hits (Count)
system.cpu0.dcache.WriteReq.mshrHits::total          448                       # number of WriteReq MSHR hits (Count)
system.cpu0.dcache.WriteReq.mshrMisses::cpu0.data        39797                       # number of WriteReq MSHR misses (Count)
system.cpu0.dcache.WriteReq.mshrMisses::total        39797                       # number of WriteReq MSHR misses (Count)
system.cpu0.dcache.WriteReq.mshrMissLatency::cpu0.data   1338843874                       # number of WriteReq MSHR miss ticks (Tick)
system.cpu0.dcache.WriteReq.mshrMissLatency::total   1338843874                       # number of WriteReq MSHR miss ticks (Tick)
system.cpu0.dcache.WriteReq.mshrMissRate::cpu0.data     0.012190                       # mshr miss rate for WriteReq accesses (Ratio)
system.cpu0.dcache.WriteReq.mshrMissRate::total     0.012190                       # mshr miss rate for WriteReq accesses (Ratio)
system.cpu0.dcache.WriteReq.avgMshrMissLatency::cpu0.data 33641.829133                       # average WriteReq mshr miss latency ((Tick/Count))
system.cpu0.dcache.WriteReq.avgMshrMissLatency::total 33641.829133                       # average WriteReq mshr miss latency ((Tick/Count))
system.cpu0.dcache.power_state.pwrStateResidencyTicks::UNDEFINED  19000363599                       # Cumulative time (in ticks) in various power states (Tick)
system.cpu0.dcache.tags.tagsInUse         1013.970371                       # Average ticks per tags in use ((Tick/Count))
system.cpu0.dcache.tags.totalRefs            19575986                       # Total number of references to valid blocks. (Count)
system.cpu0.dcache.tags.sampledRefs            153801                       # Sample count of references to valid blocks. (Count)
system.cpu0.dcache.tags.avgRefs            127.281266                       # Average number of references to valid blocks. ((Count/Count))
system.cpu0.dcache.tags.warmupTick             190995                       # The tick when the warmup percentage was hit. (Tick)
system.cpu0.dcache.tags.occupancies::cpu0.data  1013.970371                       # Average occupied blocks per tick, per requestor ((Count/Tick))
system.cpu0.dcache.tags.avgOccs::cpu0.data     0.990205                       # Average percentage of cache occupancy ((Ratio/Tick))
system.cpu0.dcache.tags.avgOccs::total       0.990205                       # Average percentage of cache occupancy ((Ratio/Tick))
system.cpu0.dcache.tags.occupanciesTaskId::1024         1019                       # Occupied blocks per task id (Count)
system.cpu0.dcache.tags.ageTaskId_1024::0           30                       # Occupied blocks per task id, per block age (Count)
system.cpu0.dcache.tags.ageTaskId_1024::1          815                       # Occupied blocks per task id, per block age (Count)
system.cpu0.dcache.tags.ageTaskId_1024::2          161                       # Occupied blocks per task id, per block age (Count)
system.cpu0.dcache.tags.ageTaskId_1024::3           12                       # Occupied blocks per task id, per block age (Count)
system.cpu0.dcache.tags.ageTaskId_1024::4            1                       # Occupied blocks per task id, per block age (Count)
system.cpu0.dcache.tags.ratioOccsTaskId::1024     0.995117                       # Ratio of occupied blocks and all blocks, per task id (Ratio)
system.cpu0.dcache.tags.tagAccesses         157984065                       # Number of tag accesses (Count)
system.cpu0.dcache.tags.dataAccesses        157984065                       # Number of data accesses (Count)
system.cpu0.dcache.tags.power_state.pwrStateResidencyTicks::UNDEFINED  19000363599                       # Cumulative time (in ticks) in various power states (Tick)
system.cpu0.decode.idleCycles                11455285                       # Number of cycles decode is idle (Cycle)
system.cpu0.decode.blockedCycles             11239494                       # Number of cycles decode is blocked (Cycle)
system.cpu0.decode.runCycles                 25020369                       # Number of cycles decode is running (Cycle)
system.cpu0.decode.unblockCycles              2484899                       # Number of cycles decode is unblocking (Cycle)
system.cpu0.decode.squashCycles                296261                       # Number of cycles decode is squashing (Cycle)
system.cpu0.decode.branchResolved             5524939                       # Number of times decode resolved a branch (Count)
system.cpu0.decode.branchMispred                 1261                       # Number of times decode detected a branch misprediction (Count)
system.cpu0.decode.decodedInsts             185132845                       # Number of instructions handled by decode (Count)
system.cpu0.decode.squashedInsts                 5796                       # Number of squashed instructions handled by decode (Count)
system.cpu0.dtb_walker_cache.blockedCycles::no_mshrs            0                       # number of cycles access was blocked (Cycle)
system.cpu0.dtb_walker_cache.blockedCycles::no_targets            0                       # number of cycles access was blocked (Cycle)
system.cpu0.dtb_walker_cache.blockedCauses::no_mshrs            0                       # number of times access was blocked (Count)
system.cpu0.dtb_walker_cache.blockedCauses::no_targets            0                       # number of times access was blocked (Count)
system.cpu0.dtb_walker_cache.avgBlocked::no_mshrs          nan                       # average number of cycles each access was blocked ((Cycle/Count))
system.cpu0.dtb_walker_cache.avgBlocked::no_targets          nan                       # average number of cycles each access was blocked ((Cycle/Count))
system.cpu0.dtb_walker_cache.replacements            0                       # number of replacements (Count)
system.cpu0.dtb_walker_cache.power_state.pwrStateResidencyTicks::UNDEFINED  19000363599                       # Cumulative time (in ticks) in various power states (Tick)
system.cpu0.dtb_walker_cache.tags.tagsInUse            0                       # Average ticks per tags in use ((Tick/Count))
system.cpu0.dtb_walker_cache.tags.totalRefs            0                       # Total number of references to valid blocks. (Count)
system.cpu0.dtb_walker_cache.tags.sampledRefs            0                       # Sample count of references to valid blocks. (Count)
system.cpu0.dtb_walker_cache.tags.avgRefs          nan                       # Average number of references to valid blocks. ((Count/Count))
system.cpu0.dtb_walker_cache.tags.warmupTick            0                       # The tick when the warmup percentage was hit. (Tick)
system.cpu0.dtb_walker_cache.tags.tagAccesses            0                       # Number of tag accesses (Count)
system.cpu0.dtb_walker_cache.tags.dataAccesses            0                       # Number of data accesses (Count)
system.cpu0.dtb_walker_cache.tags.power_state.pwrStateResidencyTicks::UNDEFINED  19000363599                       # Cumulative time (in ticks) in various power states (Tick)
system.cpu0.fetch.icacheStallCycles          12713187                       # Number of cycles fetch is stalled on an Icache miss (Cycle)
system.cpu0.fetch.insts                     117540619                       # Number of instructions fetch has processed (Count)
system.cpu0.fetch.branches                   10574528                       # Number of branches that fetch encountered (Count)
system.cpu0.fetch.predictedBranches           5949756                       # Number of branches that fetch has predicted taken (Count)
system.cpu0.fetch.cycles                     37483404                       # Number of cycles fetch has run and was not squashing or blocked (Cycle)
system.cpu0.fetch.squashCycles                 594984                       # Number of cycles fetch has spent squashing (Cycle)
system.cpu0.fetch.miscStallCycles                 318                       # Number of cycles fetch has spent waiting on interrupts, or bad addresses, or out of MSHRs (Cycle)
system.cpu0.fetch.pendingTrapStallCycles         1830                       # Number of stall cycles due to pending traps (Cycle)
system.cpu0.fetch.icacheWaitRetryStallCycles           77                       # Number of stall cycles due to full MSHR (Cycle)
system.cpu0.fetch.cacheLines                 12451837                       # Number of cache lines fetched (Count)
system.cpu0.fetch.icacheSquashes                61978                       # Number of outstanding Icache misses that were squashed (Count)
system.cpu0.fetch.nisnDist::samples          50496308                       # Number of instructions fetched each cycle (Total) (Count)
system.cpu0.fetch.nisnDist::mean             3.736601                       # Number of instructions fetched each cycle (Total) (Count)
system.cpu0.fetch.nisnDist::stdev            3.643781                       # Number of instructions fetched each cycle (Total) (Count)
system.cpu0.fetch.nisnDist::underflows              0      0.00%      0.00% # Number of instructions fetched each cycle (Total) (Count)
system.cpu0.fetch.nisnDist::0                21053779     41.69%     41.69% # Number of instructions fetched each cycle (Total) (Count)
system.cpu0.fetch.nisnDist::1                 1788154      3.54%     45.23% # Number of instructions fetched each cycle (Total) (Count)
system.cpu0.fetch.nisnDist::2                 1208995      2.39%     47.63% # Number of instructions fetched each cycle (Total) (Count)
system.cpu0.fetch.nisnDist::3                 2705694      5.36%     52.99% # Number of instructions fetched each cycle (Total) (Count)
system.cpu0.fetch.nisnDist::4                 1331356      2.64%     55.62% # Number of instructions fetched each cycle (Total) (Count)
system.cpu0.fetch.nisnDist::5                 1912293      3.79%     59.41% # Number of instructions fetched each cycle (Total) (Count)
system.cpu0.fetch.nisnDist::6                  531240      1.05%     60.46% # Number of instructions fetched each cycle (Total) (Count)
system.cpu0.fetch.nisnDist::7                 1431376      2.83%     63.30% # Number of instructions fetched each cycle (Total) (Count)
system.cpu0.fetch.nisnDist::8                18533421     36.70%    100.00% # Number of instructions fetched each cycle (Total) (Count)
system.cpu0.fetch.nisnDist::overflows               0      0.00%    100.00% # Number of instructions fetched each cycle (Total) (Count)
system.cpu0.fetch.nisnDist::min_value               0                       # Number of instructions fetched each cycle (Total) (Count)
system.cpu0.fetch.nisnDist::max_value               8                       # Number of instructions fetched each cycle (Total) (Count)
system.cpu0.fetch.nisnDist::total            50496308                       # Number of instructions fetched each cycle (Total) (Count)
system.cpu0.fetch.branchRate                 0.208621                       # Number of branch fetches per cycle (Ratio)
system.cpu0.fetch.rate                       2.318916                       # Number of inst fetches per cycle ((Count/Cycle))
system.cpu0.icache.demandHits::cpu0.inst     12449326                       # number of demand (read+write) hits (Count)
system.cpu0.icache.demandHits::total         12449326                       # number of demand (read+write) hits (Count)
system.cpu0.icache.overallHits::cpu0.inst     12449326                       # number of overall hits (Count)
system.cpu0.icache.overallHits::total        12449326                       # number of overall hits (Count)
system.cpu0.icache.demandMisses::cpu0.inst         2510                       # number of demand (read+write) misses (Count)
system.cpu0.icache.demandMisses::total           2510                       # number of demand (read+write) misses (Count)
system.cpu0.icache.overallMisses::cpu0.inst         2510                       # number of overall misses (Count)
system.cpu0.icache.overallMisses::total          2510                       # number of overall misses (Count)
system.cpu0.icache.demandMissLatency::cpu0.inst    171755197                       # number of demand (read+write) miss ticks (Tick)
system.cpu0.icache.demandMissLatency::total    171755197                       # number of demand (read+write) miss ticks (Tick)
system.cpu0.icache.overallMissLatency::cpu0.inst    171755197                       # number of overall miss ticks (Tick)
system.cpu0.icache.overallMissLatency::total    171755197                       # number of overall miss ticks (Tick)
system.cpu0.icache.demandAccesses::cpu0.inst     12451836                       # number of demand (read+write) accesses (Count)
system.cpu0.icache.demandAccesses::total     12451836                       # number of demand (read+write) accesses (Count)
system.cpu0.icache.overallAccesses::cpu0.inst     12451836                       # number of overall (read+write) accesses (Count)
system.cpu0.icache.overallAccesses::total     12451836                       # number of overall (read+write) accesses (Count)
system.cpu0.icache.demandMissRate::cpu0.inst     0.000202                       # miss rate for demand accesses (Ratio)
system.cpu0.icache.demandMissRate::total     0.000202                       # miss rate for demand accesses (Ratio)
system.cpu0.icache.overallMissRate::cpu0.inst     0.000202                       # miss rate for overall accesses (Ratio)
system.cpu0.icache.overallMissRate::total     0.000202                       # miss rate for overall accesses (Ratio)
system.cpu0.icache.demandAvgMissLatency::cpu0.inst 68428.365339                       # average overall miss latency in ticks ((Tick/Count))
system.cpu0.icache.demandAvgMissLatency::total 68428.365339                       # average overall miss latency in ticks ((Tick/Count))
system.cpu0.icache.overallAvgMissLatency::cpu0.inst 68428.365339                       # average overall miss latency ((Tick/Count))
system.cpu0.icache.overallAvgMissLatency::total 68428.365339                       # average overall miss latency ((Tick/Count))
system.cpu0.icache.blockedCycles::no_mshrs         2081                       # number of cycles access was blocked (Cycle)
system.cpu0.icache.blockedCycles::no_targets            0                       # number of cycles access was blocked (Cycle)
system.cpu0.icache.blockedCauses::no_mshrs           19                       # number of times access was blocked (Count)
system.cpu0.icache.blockedCauses::no_targets            0                       # number of times access was blocked (Count)
system.cpu0.icache.avgBlocked::no_mshrs    109.526316                       # average number of cycles each access was blocked ((Cycle/Count))
system.cpu0.icache.avgBlocked::no_targets          nan                       # average number of cycles each access was blocked ((Cycle/Count))
system.cpu0.icache.writebacks::writebacks         1459                       # number of writebacks (Count)
system.cpu0.icache.writebacks::total             1459                       # number of writebacks (Count)
system.cpu0.icache.demandMshrHits::cpu0.inst          538                       # number of demand (read+write) MSHR hits (Count)
system.cpu0.icache.demandMshrHits::total          538                       # number of demand (read+write) MSHR hits (Count)
system.cpu0.icache.overallMshrHits::cpu0.inst          538                       # number of overall MSHR hits (Count)
system.cpu0.icache.overallMshrHits::total          538                       # number of overall MSHR hits (Count)
system.cpu0.icache.demandMshrMisses::cpu0.inst         1972                       # number of demand (read+write) MSHR misses (Count)
system.cpu0.icache.demandMshrMisses::total         1972                       # number of demand (read+write) MSHR misses (Count)
system.cpu0.icache.overallMshrMisses::cpu0.inst         1972                       # number of overall MSHR misses (Count)
system.cpu0.icache.overallMshrMisses::total         1972                       # number of overall MSHR misses (Count)
system.cpu0.icache.demandMshrMissLatency::cpu0.inst    136724216                       # number of demand (read+write) MSHR miss ticks (Tick)
system.cpu0.icache.demandMshrMissLatency::total    136724216                       # number of demand (read+write) MSHR miss ticks (Tick)
system.cpu0.icache.overallMshrMissLatency::cpu0.inst    136724216                       # number of overall MSHR miss ticks (Tick)
system.cpu0.icache.overallMshrMissLatency::total    136724216                       # number of overall MSHR miss ticks (Tick)
system.cpu0.icache.demandMshrMissRate::cpu0.inst     0.000158                       # mshr miss ratio for demand accesses (Ratio)
system.cpu0.icache.demandMshrMissRate::total     0.000158                       # mshr miss ratio for demand accesses (Ratio)
system.cpu0.icache.overallMshrMissRate::cpu0.inst     0.000158                       # mshr miss ratio for overall accesses (Ratio)
system.cpu0.icache.overallMshrMissRate::total     0.000158                       # mshr miss ratio for overall accesses (Ratio)
system.cpu0.icache.demandAvgMshrMissLatency::cpu0.inst 69332.766734                       # average overall mshr miss latency ((Tick/Count))
system.cpu0.icache.demandAvgMshrMissLatency::total 69332.766734                       # average overall mshr miss latency ((Tick/Count))
system.cpu0.icache.overallAvgMshrMissLatency::cpu0.inst 69332.766734                       # average overall mshr miss latency ((Tick/Count))
system.cpu0.icache.overallAvgMshrMissLatency::total 69332.766734                       # average overall mshr miss latency ((Tick/Count))
system.cpu0.icache.replacements                  1459                       # number of replacements (Count)
system.cpu0.icache.ReadReq.hits::cpu0.inst     12449326                       # number of ReadReq hits (Count)
system.cpu0.icache.ReadReq.hits::total       12449326                       # number of ReadReq hits (Count)
system.cpu0.icache.ReadReq.misses::cpu0.inst         2510                       # number of ReadReq misses (Count)
system.cpu0.icache.ReadReq.misses::total         2510                       # number of ReadReq misses (Count)
system.cpu0.icache.ReadReq.missLatency::cpu0.inst    171755197                       # number of ReadReq miss ticks (Tick)
system.cpu0.icache.ReadReq.missLatency::total    171755197                       # number of ReadReq miss ticks (Tick)
system.cpu0.icache.ReadReq.accesses::cpu0.inst     12451836                       # number of ReadReq accesses(hits+misses) (Count)
system.cpu0.icache.ReadReq.accesses::total     12451836                       # number of ReadReq accesses(hits+misses) (Count)
system.cpu0.icache.ReadReq.missRate::cpu0.inst     0.000202                       # miss rate for ReadReq accesses (Ratio)
system.cpu0.icache.ReadReq.missRate::total     0.000202                       # miss rate for ReadReq accesses (Ratio)
system.cpu0.icache.ReadReq.avgMissLatency::cpu0.inst 68428.365339                       # average ReadReq miss latency ((Tick/Count))
system.cpu0.icache.ReadReq.avgMissLatency::total 68428.365339                       # average ReadReq miss latency ((Tick/Count))
system.cpu0.icache.ReadReq.mshrHits::cpu0.inst          538                       # number of ReadReq MSHR hits (Count)
system.cpu0.icache.ReadReq.mshrHits::total          538                       # number of ReadReq MSHR hits (Count)
system.cpu0.icache.ReadReq.mshrMisses::cpu0.inst         1972                       # number of ReadReq MSHR misses (Count)
system.cpu0.icache.ReadReq.mshrMisses::total         1972                       # number of ReadReq MSHR misses (Count)
system.cpu0.icache.ReadReq.mshrMissLatency::cpu0.inst    136724216                       # number of ReadReq MSHR miss ticks (Tick)
system.cpu0.icache.ReadReq.mshrMissLatency::total    136724216                       # number of ReadReq MSHR miss ticks (Tick)
system.cpu0.icache.ReadReq.mshrMissRate::cpu0.inst     0.000158                       # mshr miss rate for ReadReq accesses (Ratio)
system.cpu0.icache.ReadReq.mshrMissRate::total     0.000158                       # mshr miss rate for ReadReq accesses (Ratio)
system.cpu0.icache.ReadReq.avgMshrMissLatency::cpu0.inst 69332.766734                       # average ReadReq mshr miss latency ((Tick/Count))
system.cpu0.icache.ReadReq.avgMshrMissLatency::total 69332.766734                       # average ReadReq mshr miss latency ((Tick/Count))
system.cpu0.icache.power_state.pwrStateResidencyTicks::UNDEFINED  19000363599                       # Cumulative time (in ticks) in various power states (Tick)
system.cpu0.icache.tags.tagsInUse          510.112816                       # Average ticks per tags in use ((Tick/Count))
system.cpu0.icache.tags.totalRefs            12451297                       # Total number of references to valid blocks. (Count)
system.cpu0.icache.tags.sampledRefs              1971                       # Sample count of references to valid blocks. (Count)
system.cpu0.icache.tags.avgRefs           6317.248605                       # Average number of references to valid blocks. ((Count/Count))
system.cpu0.icache.tags.warmupTick              94248                       # The tick when the warmup percentage was hit. (Tick)
system.cpu0.icache.tags.occupancies::cpu0.inst   510.112816                       # Average occupied blocks per tick, per requestor ((Count/Tick))
system.cpu0.icache.tags.avgOccs::cpu0.inst     0.996314                       # Average percentage of cache occupancy ((Ratio/Tick))
system.cpu0.icache.tags.avgOccs::total       0.996314                       # Average percentage of cache occupancy ((Ratio/Tick))
system.cpu0.icache.tags.occupanciesTaskId::1024          512                       # Occupied blocks per task id (Count)
system.cpu0.icache.tags.ageTaskId_1024::0           92                       # Occupied blocks per task id, per block age (Count)
system.cpu0.icache.tags.ageTaskId_1024::1          399                       # Occupied blocks per task id, per block age (Count)
system.cpu0.icache.tags.ageTaskId_1024::4           21                       # Occupied blocks per task id, per block age (Count)
system.cpu0.icache.tags.ratioOccsTaskId::1024            1                       # Ratio of occupied blocks and all blocks, per task id (Ratio)
system.cpu0.icache.tags.tagAccesses          99616659                       # Number of tag accesses (Count)
system.cpu0.icache.tags.dataAccesses         99616659                       # Number of data accesses (Count)
system.cpu0.icache.tags.power_state.pwrStateResidencyTicks::UNDEFINED  19000363599                       # Cumulative time (in ticks) in various power states (Tick)
system.cpu0.iew.idleCycles                          0                       # Number of cycles IEW is idle (Cycle)
system.cpu0.iew.squashCycles                   296261                       # Number of cycles IEW is squashing (Cycle)
system.cpu0.iew.blockCycles                   2920748                       # Number of cycles IEW is blocking (Cycle)
system.cpu0.iew.unblockCycles                  869147                       # Number of cycles IEW is unblocking (Cycle)
system.cpu0.iew.dispatchedInsts             181435548                       # Number of instructions dispatched to IQ (Count)
system.cpu0.iew.dispSquashedInsts              156285                       # Number of squashed instructions skipped by dispatch (Count)
system.cpu0.iew.dispLoadInsts                17259190                       # Number of dispatched load instructions (Count)
system.cpu0.iew.dispStoreInsts                3737229                       # Number of dispatched store instructions (Count)
system.cpu0.iew.dispNonSpecInsts                86826                       # Number of dispatched non-speculative instructions (Count)
system.cpu0.iew.iqFullEvents                    67135                       # Number of times the IQ has become full, causing a stall (Count)
system.cpu0.iew.lsqFullEvents                  752205                       # Number of times the LSQ has become full, causing a stall (Count)
system.cpu0.iew.memOrderViolationEvents         29143                       # Number of memory order violations (Count)
system.cpu0.iew.predictedTakenIncorrect        134145                       # Number of branches that were predicted taken incorrectly (Count)
system.cpu0.iew.predictedNotTakenIncorrect       137077                       # Number of branches that were predicted not taken incorrectly (Count)
system.cpu0.iew.branchMispredicts              271222                       # Number of branch mispredicts detected at execute (Count)
system.cpu0.iew.instsToCommit               177047149                       # Cumulative count of insts sent to commit (Count)
system.cpu0.iew.writebackCount              176756373                       # Cumulative count of insts written-back (Count)
system.cpu0.iew.producerInst                132171094                       # Number of instructions producing a value (Count)
system.cpu0.iew.consumerInst                219984561                       # Number of instructions consuming a value (Count)
system.cpu0.iew.wbRate                       3.487162                       # Insts written-back per cycle ((Count/Cycle))
system.cpu0.iew.wbFanout                     0.600820                       # Average fanout of values written-back ((Count/Count))
system.cpu0.interrupts.clk_domain.clock          5712                       # Clock period in ticks (Tick)
system.cpu0.itb_walker_cache.blockedCycles::no_mshrs            0                       # number of cycles access was blocked (Cycle)
system.cpu0.itb_walker_cache.blockedCycles::no_targets            0                       # number of cycles access was blocked (Cycle)
system.cpu0.itb_walker_cache.blockedCauses::no_mshrs            0                       # number of times access was blocked (Count)
system.cpu0.itb_walker_cache.blockedCauses::no_targets            0                       # number of times access was blocked (Count)
system.cpu0.itb_walker_cache.avgBlocked::no_mshrs          nan                       # average number of cycles each access was blocked ((Cycle/Count))
[...]
system.mem_ctrls.dram.perBankWrBursts::6            0                       # Per bank write bursts (Count)
system.mem_ctrls.dram.perBankWrBursts::7            0                       # Per bank write bursts (Count)
system.mem_ctrls.dram.perBankWrBursts::8            0                       # Per bank write bursts (Count)
system.mem_ctrls.dram.perBankWrBursts::9            0                       # Per bank write bursts (Count)
system.mem_ctrls.dram.perBankWrBursts::10            0                       # Per bank write bursts (Count)
system.mem_ctrls.dram.perBankWrBursts::11            0                       # Per bank write bursts (Count)
system.mem_ctrls.dram.perBankWrBursts::12            0                       # Per bank write bursts (Count)
system.mem_ctrls.dram.perBankWrBursts::13            0                       # Per bank write bursts (Count)
system.mem_ctrls.dram.perBankWrBursts::14            0                       # Per bank write bursts (Count)
system.mem_ctrls.dram.perBankWrBursts::15            0                       # Per bank write bursts (Count)
system.mem_ctrls.dram.totQLat                95805895                       # Total ticks spent queuing (Tick)
system.mem_ctrls.dram.totBusLat              79385000                       # Total ticks spent in databus transfers (Tick)
system.mem_ctrls.dram.totMemAccLat          393499645                       # Total ticks spent from burst creation until serviced by the DRAM (Tick)
system.mem_ctrls.dram.avgQLat                 6034.26                       # Average queueing delay per DRAM burst ((Tick/Count))
system.mem_ctrls.dram.avgBusLat               5000.00                       # Average bus latency per DRAM burst ((Tick/Count))
system.mem_ctrls.dram.avgMemAccLat           24784.26                       # Average memory access latency per DRAM burst ((Tick/Count))
system.mem_ctrls.dram.readRowHits               13461                       # Number of row buffer hits during reads (Count)
system.mem_ctrls.dram.writeRowHits                  0                       # Number of row buffer hits during writes (Count)
system.mem_ctrls.dram.readRowHitRate            84.78                       # Row buffer hit rate for reads (Ratio)
system.mem_ctrls.dram.writeRowHitRate             nan                       # Row buffer hit rate for writes (Ratio)
system.mem_ctrls.dram.bytesPerActivate::samples         2411                       # Bytes accessed per row activation (Byte)
system.mem_ctrls.dram.bytesPerActivate::mean   421.189548                       # Bytes accessed per row activation (Byte)
system.mem_ctrls.dram.bytesPerActivate::gmean   256.970870                       # Bytes accessed per row activation (Byte)
system.mem_ctrls.dram.bytesPerActivate::stdev   372.759175                       # Bytes accessed per row activation (Byte)
system.mem_ctrls.dram.bytesPerActivate::0-127          631     26.17%     26.17% # Bytes accessed per row activation (Byte)
system.mem_ctrls.dram.bytesPerActivate::128-255          481     19.95%     46.12% # Bytes accessed per row activation (Byte)
system.mem_ctrls.dram.bytesPerActivate::256-383          272     11.28%     57.40% # Bytes accessed per row activation (Byte)
system.mem_ctrls.dram.bytesPerActivate::384-511          208      8.63%     66.03% # Bytes accessed per row activation (Byte)
system.mem_ctrls.dram.bytesPerActivate::512-639          108      4.48%     70.51% # Bytes accessed per row activation (Byte)
system.mem_ctrls.dram.bytesPerActivate::640-767           73      3.03%     73.54% # Bytes accessed per row activation (Byte)
system.mem_ctrls.dram.bytesPerActivate::768-895           74      3.07%     76.61% # Bytes accessed per row activation (Byte)
system.mem_ctrls.dram.bytesPerActivate::896-1023           67      2.78%     79.39% # Bytes accessed per row activation (Byte)
system.mem_ctrls.dram.bytesPerActivate::1024-1151          497     20.61%    100.00% # Bytes accessed per row activation (Byte)
system.mem_ctrls.dram.bytesPerActivate::total         2411                       # Bytes accessed per row activation (Byte)
system.mem_ctrls.dram.bytesRead               1016128                       # Total bytes read (Byte)
system.mem_ctrls.dram.bytesWritten                  0                       # Total bytes written (Byte)
system.mem_ctrls.dram.avgRdBW               53.479398                       # Average DRAM read bandwidth in MiBytes/s ((Byte/Second))
system.mem_ctrls.dram.avgWrBW                       0                       # Average DRAM write bandwidth in MiBytes/s ((Byte/Second))
system.mem_ctrls.dram.peakBW                 12800.00                       # Theoretical peak bandwidth in MiByte/s ((Byte/Second))
system.mem_ctrls.dram.busUtil                    0.42                       # Data bus utilization in percentage (Ratio)
system.mem_ctrls.dram.busUtilRead                0.42                       # Data bus utilization in percentage for reads (Ratio)
system.mem_ctrls.dram.busUtilWrite               0.00                       # Data bus utilization in percentage for writes (Ratio)
system.mem_ctrls.dram.pageHitRate               84.78                       # Row buffer hit rate, read and write combined (Ratio)
system.mem_ctrls.dram.power_state.pwrStateResidencyTicks::UNDEFINED  19000363599                       # Cumulative time (in ticks) in various power states (Tick)
system.mem_ctrls.dram.rank0.actEnergy         8432340                       # Energy for activate commands per rank (pJ) (Joule)
system.mem_ctrls.dram.rank0.preEnergy         4478100                       # Energy for precharge commands per rank (pJ) (Joule)
system.mem_ctrls.dram.rank0.readEnergy       55920480                       # Energy for read commands per rank (pJ) (Joule)
system.mem_ctrls.dram.rank0.writeEnergy             0                       # Energy for write commands per rank (pJ) (Joule)
system.mem_ctrls.dram.rank0.refreshEnergy 1499721600.000000                       # Energy for refresh commands per rank (pJ) (Joule)
system.mem_ctrls.dram.rank0.actBackEnergy    926410740                       # Energy for active background per rank (pJ) (Joule)
system.mem_ctrls.dram.rank0.preBackEnergy   6516004320                       # Energy for precharge background per rank (pJ) (Joule)
system.mem_ctrls.dram.rank0.actPowerDownEnergy            0                       # Energy for active power-down per rank (pJ) (Joule)
system.mem_ctrls.dram.rank0.prePowerDownEnergy            0                       # Energy for precharge power-down per rank (pJ) (Joule)
system.mem_ctrls.dram.rank0.selfRefreshEnergy            0                       # Energy for self refresh per rank (pJ) (Joule)
system.mem_ctrls.dram.rank0.totalEnergy    9010967580                       # Total energy per rank (pJ) (Joule)
system.mem_ctrls.dram.rank0.averagePower   474.252376                       # Core power per rank (mW) (Watt)
system.mem_ctrls.dram.rank0.totalIdleTime            0                       # Total Idle time Per DRAM Rank (Tick)
system.mem_ctrls.dram.rank0.pwrStateTime::IDLE  16930165742                       # Time in different power states (Tick)
system.mem_ctrls.dram.rank0.pwrStateTime::REF    634400000                       # Time in different power states (Tick)
system.mem_ctrls.dram.rank0.pwrStateTime::SREF            0                       # Time in different power states (Tick)
system.mem_ctrls.dram.rank0.pwrStateTime::PRE_PDN            0                       # Time in different power states (Tick)
system.mem_ctrls.dram.rank0.pwrStateTime::ACT   1435797857                       # Time in different power states (Tick)
system.mem_ctrls.dram.rank0.pwrStateTime::ACT_PDN            0                       # Time in different power states (Tick)
system.mem_ctrls.dram.rank1.actEnergy         8817900                       # Energy for activate commands per rank (pJ) (Joule)
system.mem_ctrls.dram.rank1.preEnergy         4671645                       # Energy for precharge commands per rank (pJ) (Joule)
system.mem_ctrls.dram.rank1.readEnergy       57441300                       # Energy for read commands per rank (pJ) (Joule)
system.mem_ctrls.dram.rank1.writeEnergy             0                       # Energy for write commands per rank (pJ) (Joule)
system.mem_ctrls.dram.rank1.refreshEnergy 1499721600.000000                       # Energy for refresh commands per rank (pJ) (Joule)
system.mem_ctrls.dram.rank1.actBackEnergy    975613710                       # Energy for active background per rank (pJ) (Joule)
system.mem_ctrls.dram.rank1.preBackEnergy   6474570240                       # Energy for precharge background per rank (pJ) (Joule)
system.mem_ctrls.dram.rank1.actPowerDownEnergy            0                       # Energy for active power-down per rank (pJ) (Joule)
system.mem_ctrls.dram.rank1.prePowerDownEnergy            0                       # Energy for precharge power-down per rank (pJ) (Joule)
system.mem_ctrls.dram.rank1.selfRefreshEnergy            0                       # Energy for self refresh per rank (pJ) (Joule)
system.mem_ctrls.dram.rank1.totalEnergy    9020836395                       # Total energy per rank (pJ) (Joule)
system.mem_ctrls.dram.rank1.averagePower   474.771777                       # Core power per rank (mW) (Watt)
system.mem_ctrls.dram.rank1.totalIdleTime            0                       # Total Idle time Per DRAM Rank (Tick)
system.mem_ctrls.dram.rank1.pwrStateTime::IDLE  16822483296                       # Time in different power states (Tick)
system.mem_ctrls.dram.rank1.pwrStateTime::REF    634400000                       # Time in different power states (Tick)
system.mem_ctrls.dram.rank1.pwrStateTime::SREF            0                       # Time in different power states (Tick)
system.mem_ctrls.dram.rank1.pwrStateTime::PRE_PDN            0                       # Time in different power states (Tick)
system.mem_ctrls.dram.rank1.pwrStateTime::ACT   1543480303                       # Time in different power states (Tick)
system.mem_ctrls.dram.rank1.pwrStateTime::ACT_PDN            0                       # Time in different power states (Tick)
system.mem_ctrls.power_state.pwrStateResidencyTicks::UNDEFINED  19000363599                       # Cumulative time (in ticks) in various power states (Tick)
system.membus.transDist::ReadResp                3233                       # Transaction distribution (Count)
system.membus.transDist::UpgradeReq             16224                       # Transaction distribution (Count)
system.membus.transDist::ReadExReq              22154                       # Transaction distribution (Count)
system.membus.transDist::ReadExResp             12644                       # Transaction distribution (Count)
system.membus.transDist::ReadSharedReq           3233                       # Transaction distribution (Count)
system.membus.pktCount_system.l3.mem_side_port::system.mem_ctrls.port        57488                       # Packet count per connected requestor and responder (Count)
system.membus.pktCount_system.l3.mem_side_port::total        57488                       # Packet count per connected requestor and responder (Count)
system.membus.pktCount::total                   57488                       # Packet count per connected requestor and responder (Count)
system.membus.pktSize_system.l3.mem_side_port::system.mem_ctrls.port      1016128                       # Cumulative packet size per connected requestor and responder (Byte)
system.membus.pktSize_system.l3.mem_side_port::total      1016128                       # Cumulative packet size per connected requestor and responder (Byte)
system.membus.pktSize::total                  1016128                       # Cumulative packet size per connected requestor and responder (Byte)
system.membus.snoops                            25734                       # Total snoops (Count)
system.membus.snoopTraffic                          0                       # Total snoop traffic (Byte)
system.membus.snoopFanout::samples              41611                       # Request fanout histogram (Count)
system.membus.snoopFanout::mean                     0                       # Request fanout histogram (Count)
system.membus.snoopFanout::stdev                    0                       # Request fanout histogram (Count)
system.membus.snoopFanout::underflows               0      0.00%      0.00% # Request fanout histogram (Count)
system.membus.snoopFanout::0                    41611    100.00%    100.00% # Request fanout histogram (Count)
system.membus.snoopFanout::1                        0      0.00%    100.00% # Request fanout histogram (Count)
system.membus.snoopFanout::overflows                0      0.00%    100.00% # Request fanout histogram (Count)
system.membus.snoopFanout::min_value                0                       # Request fanout histogram (Count)
system.membus.snoopFanout::max_value                0                       # Request fanout histogram (Count)
system.membus.snoopFanout::total                41611                       # Request fanout histogram (Count)
system.membus.power_state.pwrStateResidencyTicks::UNDEFINED  19000363599                       # Cumulative time (in ticks) in various power states (Tick)
system.membus.reqLayer4.occupancy            23832721                       # Layer occupancy (ticks) (Tick)
system.membus.reqLayer4.utilization               0.0                       # Layer utilization (Ratio)
system.membus.respLayer1.occupancy           83979938                       # Layer occupancy (ticks) (Tick)
system.membus.respLayer1.utilization              0.0                       # Layer utilization (Ratio)
system.membus.snoop_filter.totRequests          41611                       # Total number of requests made to the snoop filter. (Count)
system.membus.snoop_filter.hitSingleRequests        25734                       # Number of requests hitting in the snoop filter with a single holder of the requested data. (Count)
system.membus.snoop_filter.hitMultiRequests            0                       # Number of requests hitting in the snoop filter with multiple (>1) holders of the requested data. (Count)
system.membus.snoop_filter.totSnoops                0                       # Total number of snoops made to the snoop filter. (Count)
system.membus.snoop_filter.hitSingleSnoops            0                       # Number of snoops hitting in the snoop filter with a single holder of the requested data. (Count)
system.membus.snoop_filter.hitMultiSnoops            0                       # Number of snoops hitting in the snoop filter with multiple (>1) holders of the requested data. (Count)
system.tollcbus.transDist::ReadResp             38688                       # Transaction distribution (Count)
system.tollcbus.transDist::UpgradeReq           33444                       # Transaction distribution (Count)
system.tollcbus.transDist::UpgradeResp          33444                       # Transaction distribution (Count)
system.tollcbus.transDist::ReadExReq            25135                       # Transaction distribution (Count)
system.tollcbus.transDist::ReadExResp           25135                       # Transaction distribution (Count)
system.tollcbus.transDist::ReadSharedReq        38688                       # Transaction distribution (Count)
system.tollcbus.pktCount_system.cpu0.l2.mem_side_port::system.l3.cpu_side_port        71623                       # Packet count per connected requestor and responder (Count)
system.tollcbus.pktCount_system.cpu1.l2.mem_side_port::system.l3.cpu_side_port        59465                       # Packet count per connected requestor and responder (Count)
system.tollcbus.pktCount::total                131088                       # Packet count per connected requestor and responder (Count)
system.tollcbus.pktSize_system.cpu0.l2.mem_side_port::system.l3.cpu_side_port       771264                       # Cumulative packet size per connected requestor and responder (Byte)
system.tollcbus.pktSize_system.cpu1.l2.mem_side_port::system.l3.cpu_side_port       291200                       # Cumulative packet size per connected requestor and responder (Byte)
system.tollcbus.pktSize::total                1062464                       # Cumulative packet size per connected requestor and responder (Byte)
system.tollcbus.snoops                          63446                       # Total snoops (Count)
system.tollcbus.snoopTraffic                  3022208                       # Total snoop traffic (Byte)
system.tollcbus.snoopFanout::samples            97267                       # Request fanout histogram (Count)
system.tollcbus.snoopFanout::mean            0.836769                       # Request fanout histogram (Count)
system.tollcbus.snoopFanout::stdev           0.369578                       # Request fanout histogram (Count)
system.tollcbus.snoopFanout::underflows             0      0.00%      0.00% # Request fanout histogram (Count)
system.tollcbus.snoopFanout::0                  15877     16.32%     16.32% # Request fanout histogram (Count)
system.tollcbus.snoopFanout::1                  81390     83.68%    100.00% # Request fanout histogram (Count)
system.tollcbus.snoopFanout::2                      0      0.00%    100.00% # Request fanout histogram (Count)
system.tollcbus.snoopFanout::overflows              0      0.00%    100.00% # Request fanout histogram (Count)
system.tollcbus.snoopFanout::min_value              0                       # Request fanout histogram (Count)
system.tollcbus.snoopFanout::max_value              1                       # Request fanout histogram (Count)
system.tollcbus.snoopFanout::total              97267                       # Request fanout histogram (Count)
system.tollcbus.power_state.pwrStateResidencyTicks::UNDEFINED  19000363599                       # Cumulative time (in ticks) in various power states (Tick)
system.tollcbus.reqLayer0.occupancy          34817664                       # Layer occupancy (ticks) (Tick)
system.tollcbus.reqLayer0.utilization             0.0                       # Layer utilization (Ratio)
system.tollcbus.respLayer0.occupancy         42998864                       # Layer occupancy (ticks) (Tick)
system.tollcbus.respLayer0.utilization            0.0                       # Layer utilization (Ratio)
system.tollcbus.respLayer1.occupancy         37315752                       # Layer occupancy (ticks) (Tick)
system.tollcbus.respLayer1.utilization            0.0                       # Layer utilization (Ratio)
system.tollcbus.snoop_filter.totRequests        97267                       # Total number of requests made to the snoop filter. (Count)
system.tollcbus.snoop_filter.hitSingleRequests        32726                       # Number of requests hitting in the snoop filter with a single holder of the requested data. (Count)
system.tollcbus.snoop_filter.hitMultiRequests        48664                       # Number of requests hitting in the snoop filter with multiple (>1) holders of the requested data. (Count)
system.tollcbus.snoop_filter.totSnoops              0                       # Total number of snoops made to the snoop filter. (Count)
system.tollcbus.snoop_filter.hitSingleSnoops            0                       # Number of snoops hitting in the snoop filter with a single holder of the requested data. (Count)
system.tollcbus.snoop_filter.hitMultiSnoops            0                       # Number of snoops hitting in the snoop filter with multiple (>1) holders of the requested data. (Count)
system.voltage_domain.voltage                       1                       # Voltage in Volts (Volt)
system.workload.inst.arm                            0                       # number of arm instructions executed (Count)
system.workload.inst.quiesce                        0                       # number of quiesce instructions executed (Count)

---------- End Simulation Statistics   ----------
