
---------- Begin Simulation Statistics ----------
simSeconds                                   0.266442                       # Number of seconds simulated (Second)
simTicks                                 266442312000                       # Number of ticks simulated (Tick)
finalTick                                266442312000                       # Number of ticks from beginning of simulation (restored from checkpoints and never reset) (Tick)
simFreq                                  1000000000000                       # The number of ticks per simulated second ((Tick/Second))
hostSeconds                                    334.93                       # Real time elapsed on the host (Second)
hostTickRate                                795505287                       # The number of ticks simulated per host second (ticks/s) ((Tick/Second))
hostMemory                                     638292                       # Number of bytes of host memory used (Byte)
simInsts                                    178692065                       # Number of instructions simulated (Count)
simOps                                      178697645                       # Number of ops (including micro ops) simulated (Count)
hostInstRate                                   533513                       # Simulator instruction rate (inst/s) ((Count/Second))
hostOpRate                                     533529                       # Simulator op (including micro ops) rate (op/s) ((Count/Second))
system.clk_domain.clock                          1000                       # Clock period in ticks (Tick)
system.cpu.numCycles                        266442312                       # Number of cpu cycles simulated (Cycle)
system.cpu.numWorkItemsStarted                      0                       # Number of work items this cpu started (Count)
system.cpu.numWorkItemsCompleted                    0                       # Number of work items this cpu completed (Count)
system.cpu.numInsts                         178692065                       # Number of instructions committed (Count)
system.cpu.numOps                           178697645                       # Number of ops (including micro ops) committed (Count)
system.cpu.numDiscardedOps                    1223671                       # Number of ops (including micro ops) which were discarded before commit (Count)
system.cpu.numFetchSuspends                         0                       # Number of times Execute suspended instruction fetching (Count)
system.cpu.cpi                               1.491070                       # CPI: cycles per instruction ((Cycle/Count))
system.cpu.ipc                               0.670659                       # IPC: instructions per cycle ((Count/Cycle))
system.cpu.committedInstType_0::No_OpClass        94525      0.05%      0.05% # Class of committed instruction (Count)
system.cpu.committedInstType_0::IntAlu       47342888     26.49%     26.55% # Class of committed instruction (Count)
system.cpu.committedInstType_0::IntMult         16114      0.01%     26.56% # Class of committed instruction (Count)
system.cpu.committedInstType_0::IntDiv           1782      0.00%     26.56% # Class of committed instruction (Count)
system.cpu.committedInstType_0::FloatAdd     43049190     24.09%     50.65% # Class of committed instruction (Count)
system.cpu.committedInstType_0::FloatCmp       455456      0.25%     50.90% # Class of committed instruction (Count)
system.cpu.committedInstType_0::FloatCvt       931037      0.52%     51.42% # Class of committed instruction (Count)
system.cpu.committedInstType_0::FloatMult     47864509     26.79%     78.21% # Class of committed instruction (Count)
system.cpu.committedInstType_0::FloatMultAcc       105202      0.06%     78.27% # Class of committed instruction (Count)
system.cpu.committedInstType_0::FloatDiv      1471268      0.82%     79.09% # Class of committed instruction (Count)
system.cpu.committedInstType_0::FloatMisc       918672      0.51%     79.60% # Class of committed instruction (Count)
system.cpu.committedInstType_0::FloatSqrt         9739      0.01%     79.61% # Class of committed instruction (Count)
system.cpu.committedInstType_0::SimdAdd             0      0.00%     79.61% # Class of committed instruction (Count)
system.cpu.committedInstType_0::SimdAddAcc            0      0.00%     79.61% # Class of committed instruction (Count)
system.cpu.committedInstType_0::SimdAlu             0      0.00%     79.61% # Class of committed instruction (Count)
system.cpu.committedInstType_0::SimdCmp             0      0.00%     79.61% # Class of committed instruction (Count)
system.cpu.committedInstType_0::SimdCvt             0      0.00%     79.61% # Class of committed instruction (Count)
system.cpu.committedInstType_0::SimdMisc            0      0.00%     79.61% # Class of committed instruction (Count)
system.cpu.committedInstType_0::SimdMult            0      0.00%     79.61% # Class of committed instruction (Count)
system.cpu.committedInstType_0::SimdMultAcc            0      0.00%     79.61% # Class of committed instruction (Count)
system.cpu.committedInstType_0::SimdShift            0      0.00%     79.61% # Class of committed instruction (Count)
system.cpu.committedInstType_0::SimdShiftAcc            0      0.00%     79.61% # Class of committed instruction (Count)
system.cpu.committedInstType_0::SimdDiv             0      0.00%     79.61% # Class of committed instruction (Count)
system.cpu.committedInstType_0::SimdSqrt            0      0.00%     79.61% # Class of committed instruction (Count)
system.cpu.committedInstType_0::SimdFloatAdd            0      0.00%     79.61% # Class of committed instruction (Count)
system.cpu.committedInstType_0::SimdFloatAlu            0      0.00%     79.61% # Class of committed instruction (Count)
system.cpu.committedInstType_0::SimdFloatCmp            0      0.00%     79.61% # Class of committed instruction (Count)
system.cpu.committedInstType_0::SimdFloatCvt            0      0.00%     79.61% # Class of committed instruction (Count)
system.cpu.committedInstType_0::SimdFloatDiv            0      0.00%     79.61% # Class of committed instruction (Count)
system.cpu.committedInstType_0::SimdFloatMisc            0      0.00%     79.61% # Class of committed instruction (Count)
system.cpu.committedInstType_0::SimdFloatMult            0      0.00%     79.61% # Class of committed instruction (Count)
system.cpu.committedInstType_0::SimdFloatMultAcc            0      0.00%     79.61% # Class of committed instruction (Count)
system.cpu.committedInstType_0::SimdFloatSqrt            0      0.00%     79.61% # Class of committed instruction (Count)
system.cpu.committedInstType_0::SimdReduceAdd            0      0.00%     79.61% # Class of committed instruction (Count)
system.cpu.committedInstType_0::SimdReduceAlu            0      0.00%     79.61% # Class of committed instruction (Count)
system.cpu.committedInstType_0::SimdReduceCmp            0      0.00%     79.61% # Class of committed instruction (Count)
system.cpu.committedInstType_0::SimdFloatReduceAdd            0      0.00%     79.61% # Class of committed instruction (Count)
system.cpu.committedInstType_0::SimdFloatReduceCmp            0      0.00%     79.61% # Class of committed instruction (Count)
system.cpu.committedInstType_0::SimdAes             0      0.00%     79.61% # Class of committed instruction (Count)
system.cpu.committedInstType_0::SimdAesMix            0      0.00%     79.61% # Class of committed instruction (Count)
system.cpu.committedInstType_0::SimdSha1Hash            0      0.00%     79.61% # Class of committed instruction (Count)
system.cpu.committedInstType_0::SimdSha1Hash2            0      0.00%     79.61% # Class of committed instruction (Count)
system.cpu.committedInstType_0::SimdSha256Hash            0      0.00%     79.61% # Class of committed instruction (Count)
system.cpu.committedInstType_0::SimdSha256Hash2            0      0.00%     79.61% # Class of committed instruction (Count)
system.cpu.committedInstType_0::SimdShaSigma2            0      0.00%     79.61% # Class of committed instruction (Count)
system.cpu.committedInstType_0::SimdShaSigma3            0      0.00%     79.61% # Class of committed instruction (Count)
system.cpu.committedInstType_0::SimdPredAlu            0      0.00%     79.61% # Class of committed instruction (Count)
system.cpu.committedInstType_0::MemRead       4083799      2.29%     81.89% # Class of committed instruction (Count)
system.cpu.committedInstType_0::MemWrite      1302742      0.73%     82.62% # Class of committed instruction (Count)
system.cpu.committedInstType_0::FloatMemRead     26112918     14.61%     97.24% # Class of committed instruction (Count)
system.cpu.committedInstType_0::FloatMemWrite      4937804      2.76%    100.00% # Class of committed instruction (Count)
system.cpu.committedInstType_0::IprAccess            0      0.00%    100.00% # Class of committed instruction (Count)
system.cpu.committedInstType_0::InstPrefetch            0      0.00%    100.00% # Class of committed instruction (Count)
system.cpu.committedInstType_0::total       178697645                       # Class of committed instruction (Count)
system.cpu.branchPred.lookups                17646790                       # Number of BP lookups (Count)
system.cpu.branchPred.condPredicted          16458599                       # Number of conditional branches predicted (Count)
system.cpu.branchPred.condIncorrect            345431                       # Number of conditional branches incorrect (Count)
system.cpu.branchPred.BTBLookups             11172425                       # Number of BTB lookups (Count)
system.cpu.branchPred.BTBHits                11160015                       # Number of BTB hits (Count)
system.cpu.branchPred.BTBHitRatio            0.998889                       # BTB Hit Ratio (Ratio)
system.cpu.branchPred.RASUsed                  394879                       # Number of times the RAS was used to get a target. (Count)
system.cpu.branchPred.RASIncorrect                600                       # Number of incorrect RAS predictions. (Count)
system.cpu.branchPred.indirectLookups           31759                       # Number of indirect predictor lookups. (Count)
system.cpu.branchPred.indirectHits              30778                       # Number of indirect target hits. (Count)
system.cpu.branchPred.indirectMisses              981                       # Number of indirect misses. (Count)
system.cpu.branchPred.indirectMispredicted         2629                       # Number of mispredicted indirect branches. (Count)
system.cpu.dcache.demandHits::cpu.data       36096898                       # number of demand (read+write) hits (Count)
system.cpu.dcache.demandHits::total          36096898                       # number of demand (read+write) hits (Count)
system.cpu.dcache.overallHits::cpu.data      36096898                       # number of overall hits (Count)
system.cpu.dcache.overallHits::total         36096898                       # number of overall hits (Count)
system.cpu.dcache.demandMisses::cpu.data       591732                       # number of demand (read+write) misses (Count)
system.cpu.dcache.demandMisses::total          591732                       # number of demand (read+write) misses (Count)
system.cpu.dcache.overallMisses::cpu.data       591732                       # number of overall misses (Count)
system.cpu.dcache.overallMisses::total         591732                       # number of overall misses (Count)
system.cpu.dcache.demandMissLatency::cpu.data  36640449000                       # number of demand (read+write) miss ticks (Tick)
system.cpu.dcache.demandMissLatency::total  36640449000                       # number of demand (read+write) miss ticks (Tick)
system.cpu.dcache.overallMissLatency::cpu.data  36640449000                       # number of overall miss ticks (Tick)
system.cpu.dcache.overallMissLatency::total  36640449000                       # number of overall miss ticks (Tick)
system.cpu.dcache.demandAccesses::cpu.data     36688630                       # number of demand (read+write) accesses (Count)
system.cpu.dcache.demandAccesses::total      36688630                       # number of demand (read+write) accesses (Count)
system.cpu.dcache.overallAccesses::cpu.data     36688630                       # number of overall (read+write) accesses (Count)
system.cpu.dcache.overallAccesses::total     36688630                       # number of overall (read+write) accesses (Count)
system.cpu.dcache.demandMissRate::cpu.data     0.016128                       # miss rate for demand accesses (Ratio)
system.cpu.dcache.demandMissRate::total      0.016128                       # miss rate for demand accesses (Ratio)
system.cpu.dcache.overallMissRate::cpu.data     0.016128                       # miss rate for overall accesses (Ratio)
system.cpu.dcache.overallMissRate::total     0.016128                       # miss rate for overall accesses (Ratio)
system.cpu.dcache.demandAvgMissLatency::cpu.data 61920.681998                       # average overall miss latency in ticks ((Tick/Count))
system.cpu.dcache.demandAvgMissLatency::total 61920.681998                       # average overall miss latency in ticks ((Tick/Count))
system.cpu.dcache.overallAvgMissLatency::cpu.data 61920.681998                       # average overall miss latency ((Tick/Count))
system.cpu.dcache.overallAvgMissLatency::total 61920.681998                       # average overall miss latency ((Tick/Count))
system.cpu.dcache.blockedCycles::no_mshrs            0                       # number of cycles access was blocked (Cycle)
system.cpu.dcache.blockedCycles::no_targets            0                       # number of cycles access was blocked (Cycle)
system.cpu.dcache.blockedCauses::no_mshrs            0                       # number of times access was blocked (Count)
system.cpu.dcache.blockedCauses::no_targets            0                       # number of times access was blocked (Count)
system.cpu.dcache.avgBlocked::no_mshrs            nan                       # average number of cycles each access was blocked ((Cycle/Count))
system.cpu.dcache.avgBlocked::no_targets          nan                       # average number of cycles each access was blocked ((Cycle/Count))
system.cpu.dcache.writebacks::writebacks       154170                       # number of writebacks (Count)
system.cpu.dcache.writebacks::total            154170                       # number of writebacks (Count)
system.cpu.dcache.demandMshrHits::cpu.data       127369                       # number of demand (read+write) MSHR hits (Count)
system.cpu.dcache.demandMshrHits::total        127369                       # number of demand (read+write) MSHR hits (Count)
system.cpu.dcache.overallMshrHits::cpu.data       127369                       # number of overall MSHR hits (Count)
system.cpu.dcache.overallMshrHits::total       127369                       # number of overall MSHR hits (Count)
system.cpu.dcache.demandMshrMisses::cpu.data       464363                       # number of demand (read+write) MSHR misses (Count)
system.cpu.dcache.demandMshrMisses::total       464363                       # number of demand (read+write) MSHR misses (Count)
system.cpu.dcache.overallMshrMisses::cpu.data       464363                       # number of overall MSHR misses (Count)
system.cpu.dcache.overallMshrMisses::total       464363                       # number of overall MSHR misses (Count)
system.cpu.dcache.demandMshrMissLatency::cpu.data  27892877000                       # number of demand (read+write) MSHR miss ticks (Tick)
system.cpu.dcache.demandMshrMissLatency::total  27892877000                       # number of demand (read+write) MSHR miss ticks (Tick)
system.cpu.dcache.overallMshrMissLatency::cpu.data  27892877000                       # number of overall MSHR miss ticks (Tick)
system.cpu.dcache.overallMshrMissLatency::total  27892877000                       # number of overall MSHR miss ticks (Tick)
system.cpu.dcache.demandMshrMissRate::cpu.data     0.012657                       # mshr miss ratio for demand accesses (Ratio)
system.cpu.dcache.demandMshrMissRate::total     0.012657                       # mshr miss ratio for demand accesses (Ratio)
system.cpu.dcache.overallMshrMissRate::cpu.data     0.012657                       # mshr miss ratio for overall accesses (Ratio)
system.cpu.dcache.overallMshrMissRate::total     0.012657                       # mshr miss ratio for overall accesses (Ratio)
system.cpu.dcache.demandAvgMshrMissLatency::cpu.data 60066.967006                       # average overall mshr miss latency ((Tick/Count))
system.cpu.dcache.demandAvgMshrMissLatency::total 60066.967006                       # average overall mshr miss latency ((Tick/Count))
system.cpu.dcache.overallAvgMshrMissLatency::cpu.data 60066.967006                       # average overall mshr miss latency ((Tick/Count))
system.cpu.dcache.overallAvgMshrMissLatency::total 60066.967006                       # average overall mshr miss latency ((Tick/Count))
system.cpu.dcache.replacements                 463857                       # number of replacements (Count)
system.cpu.dcache.LoadLockedReq.hits::cpu.data         5565                       # number of LoadLockedReq hits (Count)
system.cpu.dcache.LoadLockedReq.hits::total         5565                       # number of LoadLockedReq hits (Count)
system.cpu.dcache.LoadLockedReq.misses::cpu.data            4                       # number of LoadLockedReq misses (Count)
system.cpu.dcache.LoadLockedReq.misses::total            4                       # number of LoadLockedReq misses (Count)
system.cpu.dcache.LoadLockedReq.missLatency::cpu.data       297000                       # number of LoadLockedReq miss ticks (Tick)
system.cpu.dcache.LoadLockedReq.missLatency::total       297000                       # number of LoadLockedReq miss ticks (Tick)
system.cpu.dcache.LoadLockedReq.accesses::cpu.data         5569                       # number of LoadLockedReq accesses(hits+misses) (Count)
system.cpu.dcache.LoadLockedReq.accesses::total         5569                       # number of LoadLockedReq accesses(hits+misses) (Count)
system.cpu.dcache.LoadLockedReq.missRate::cpu.data     0.000718                       # miss rate for LoadLockedReq accesses (Ratio)
system.cpu.dcache.LoadLockedReq.missRate::total     0.000718                       # miss rate for LoadLockedReq accesses (Ratio)
system.cpu.dcache.LoadLockedReq.avgMissLatency::cpu.data        74250                       # average LoadLockedReq miss latency ((Tick/Count))
system.cpu.dcache.LoadLockedReq.avgMissLatency::total        74250                       # average LoadLockedReq miss latency ((Tick/Count))
system.cpu.dcache.LoadLockedReq.mshrMisses::cpu.data            4                       # number of LoadLockedReq MSHR misses (Count)
system.cpu.dcache.LoadLockedReq.mshrMisses::total            4                       # number of LoadLockedReq MSHR misses (Count)
system.cpu.dcache.LoadLockedReq.mshrMissLatency::cpu.data       289000                       # number of LoadLockedReq MSHR miss ticks (Tick)
system.cpu.dcache.LoadLockedReq.mshrMissLatency::total       289000                       # number of LoadLockedReq MSHR miss ticks (Tick)
system.cpu.dcache.LoadLockedReq.mshrMissRate::cpu.data     0.000718                       # mshr miss rate for LoadLockedReq accesses (Ratio)
system.cpu.dcache.LoadLockedReq.mshrMissRate::total     0.000718                       # mshr miss rate for LoadLockedReq accesses (Ratio)
system.cpu.dcache.LoadLockedReq.avgMshrMissLatency::cpu.data        72250                       # average LoadLockedReq mshr miss latency ((Tick/Count))
system.cpu.dcache.LoadLockedReq.avgMshrMissLatency::total        72250                       # average LoadLockedReq mshr miss latency ((Tick/Count))
system.cpu.dcache.ReadReq.hits::cpu.data     29960991                       # number of ReadReq hits (Count)
system.cpu.dcache.ReadReq.hits::total        29960991                       # number of ReadReq hits (Count)
system.cpu.dcache.ReadReq.misses::cpu.data       492828                       # number of ReadReq misses (Count)
system.cpu.dcache.ReadReq.misses::total        492828                       # number of ReadReq misses (Count)
system.cpu.dcache.ReadReq.missLatency::cpu.data  30768301000                       # number of ReadReq miss ticks (Tick)
system.cpu.dcache.ReadReq.missLatency::total  30768301000                       # number of ReadReq miss ticks (Tick)
system.cpu.dcache.ReadReq.accesses::cpu.data     30453819                       # number of ReadReq accesses(hits+misses) (Count)
system.cpu.dcache.ReadReq.accesses::total     30453819                       # number of ReadReq accesses(hits+misses) (Count)
system.cpu.dcache.ReadReq.missRate::cpu.data     0.016183                       # miss rate for ReadReq accesses (Ratio)
system.cpu.dcache.ReadReq.missRate::total     0.016183                       # miss rate for ReadReq accesses (Ratio)
system.cpu.dcache.ReadReq.avgMissLatency::cpu.data 62432.128450                       # average ReadReq miss latency ((Tick/Count))
system.cpu.dcache.ReadReq.avgMissLatency::total 62432.128450                       # average ReadReq miss latency ((Tick/Count))
system.cpu.dcache.ReadReq.mshrHits::cpu.data        94611                       # number of ReadReq MSHR hits (Count)
system.cpu.dcache.ReadReq.mshrHits::total        94611                       # number of ReadReq MSHR hits (Count)
system.cpu.dcache.ReadReq.mshrMisses::cpu.data       398217                       # number of ReadReq MSHR misses (Count)
system.cpu.dcache.ReadReq.mshrMisses::total       398217                       # number of ReadReq MSHR misses (Count)
system.cpu.dcache.ReadReq.mshrMissLatency::cpu.data  23968424000                       # number of ReadReq MSHR miss ticks (Tick)
system.cpu.dcache.ReadReq.mshrMissLatency::total  23968424000                       # number of ReadReq MSHR miss ticks (Tick)
system.cpu.dcache.ReadReq.mshrMissRate::cpu.data     0.013076                       # mshr miss rate for ReadReq accesses (Ratio)
system.cpu.dcache.ReadReq.mshrMissRate::total     0.013076                       # mshr miss rate for ReadReq accesses (Ratio)
system.cpu.dcache.ReadReq.avgMshrMissLatency::cpu.data 60189.354046                       # average ReadReq mshr miss latency ((Tick/Count))
system.cpu.dcache.ReadReq.avgMshrMissLatency::total 60189.354046                       # average ReadReq mshr miss latency ((Tick/Count))
system.cpu.dcache.StoreCondReq.hits::cpu.data         5569                       # number of StoreCondReq hits (Count)
system.cpu.dcache.StoreCondReq.hits::total         5569                       # number of StoreCondReq hits (Count)
system.cpu.dcache.StoreCondReq.accesses::cpu.data         5569                       # number of StoreCondReq accesses(hits+misses) (Count)
system.cpu.dcache.StoreCondReq.accesses::total         5569                       # number of StoreCondReq accesses(hits+misses) (Count)
system.cpu.dcache.SwapReq.hits::cpu.data         7635                       # number of SwapReq hits (Count)
system.cpu.dcache.SwapReq.hits::total            7635                       # number of SwapReq hits (Count)
system.cpu.dcache.SwapReq.misses::cpu.data            2                       # number of SwapReq misses (Count)
system.cpu.dcache.SwapReq.misses::total             2                       # number of SwapReq misses (Count)
system.cpu.dcache.SwapReq.missLatency::cpu.data       134000                       # number of SwapReq miss ticks (Tick)
system.cpu.dcache.SwapReq.missLatency::total       134000                       # number of SwapReq miss ticks (Tick)
system.cpu.dcache.SwapReq.accesses::cpu.data         7637                       # number of SwapReq accesses(hits+misses) (Count)
system.cpu.dcache.SwapReq.accesses::total         7637                       # number of SwapReq accesses(hits+misses) (Count)
system.cpu.dcache.SwapReq.missRate::cpu.data     0.000262                       # miss rate for SwapReq accesses (Ratio)
system.cpu.dcache.SwapReq.missRate::total     0.000262                       # miss rate for SwapReq accesses (Ratio)
system.cpu.dcache.SwapReq.avgMissLatency::cpu.data        67000                       # average SwapReq miss latency ((Tick/Count))
system.cpu.dcache.SwapReq.avgMissLatency::total        67000                       # average SwapReq miss latency ((Tick/Count))
system.cpu.dcache.SwapReq.mshrMisses::cpu.data            2                       # number of SwapReq MSHR misses (Count)
system.cpu.dcache.SwapReq.mshrMisses::total            2                       # number of SwapReq MSHR misses (Count)
system.cpu.dcache.SwapReq.mshrMissLatency::cpu.data       130000                       # number of SwapReq MSHR miss ticks (Tick)
system.cpu.dcache.SwapReq.mshrMissLatency::total       130000                       # number of SwapReq MSHR miss ticks (Tick)
system.cpu.dcache.SwapReq.mshrMissRate::cpu.data     0.000262                       # mshr miss rate for SwapReq accesses (Ratio)
system.cpu.dcache.SwapReq.mshrMissRate::total     0.000262                       # mshr miss rate for SwapReq accesses (Ratio)
system.cpu.dcache.SwapReq.avgMshrMissLatency::cpu.data        65000                       # average SwapReq mshr miss latency ((Tick/Count))
system.cpu.dcache.SwapReq.avgMshrMissLatency::total        65000                       # average SwapReq mshr miss latency ((Tick/Count))
system.cpu.dcache.WriteReq.hits::cpu.data      6135907                       # number of WriteReq hits (Count)
system.cpu.dcache.WriteReq.hits::total        6135907                       # number of WriteReq hits (Count)
system.cpu.dcache.WriteReq.misses::cpu.data        98904                       # number of WriteReq misses (Count)
system.cpu.dcache.WriteReq.misses::total        98904                       # number of WriteReq misses (Count)
system.cpu.dcache.WriteReq.missLatency::cpu.data   5872148000                       # number of WriteReq miss ticks (Tick)
system.cpu.dcache.WriteReq.missLatency::total   5872148000                       # number of WriteReq miss ticks (Tick)
system.cpu.dcache.WriteReq.accesses::cpu.data      6234811                       # number of WriteReq accesses(hits+misses) (Count)
system.cpu.dcache.WriteReq.accesses::total      6234811                       # number of WriteReq accesses(hits+misses) (Count)
system.cpu.dcache.WriteReq.missRate::cpu.data     0.015863                       # miss rate for WriteReq accesses (Ratio)
system.cpu.dcache.WriteReq.missRate::total     0.015863                       # miss rate for WriteReq accesses (Ratio)
system.cpu.dcache.WriteReq.avgMissLatency::cpu.data 59372.199304                       # average WriteReq miss latency ((Tick/Count))
system.cpu.dcache.WriteReq.avgMissLatency::total 59372.199304                       # average WriteReq miss latency ((Tick/Count))
system.cpu.dcache.WriteReq.mshrHits::cpu.data        32758                       # number of WriteReq MSHR hits (Count)
system.cpu.dcache.WriteReq.mshrHits::total        32758                       # number of WriteReq MSHR hits (Count)
system.cpu.dcache.WriteReq.mshrMisses::cpu.data        66146                       # number of WriteReq MSHR misses (Count)
system.cpu.dcache.WriteReq.mshrMisses::total        66146                       # number of WriteReq MSHR misses (Count)
system.cpu.dcache.WriteReq.mshrMissLatency::cpu.data   3924453000                       # number of WriteReq MSHR miss ticks (Tick)
system.cpu.dcache.WriteReq.mshrMissLatency::total   3924453000                       # number of WriteReq MSHR miss ticks (Tick)
system.cpu.dcache.WriteReq.mshrMissRate::cpu.data     0.010609                       # mshr miss rate for WriteReq accesses (Ratio)
system.cpu.dcache.WriteReq.mshrMissRate::total     0.010609                       # mshr miss rate for WriteReq accesses (Ratio)
system.cpu.dcache.WriteReq.avgMshrMissLatency::cpu.data 59330.163578                       # average WriteReq mshr miss latency ((Tick/Count))
system.cpu.dcache.WriteReq.avgMshrMissLatency::total 59330.163578                       # average WriteReq mshr miss latency ((Tick/Count))
system.cpu.dcache.power_state.pwrStateResidencyTicks::UNDEFINED 266442312000                       # Cumulative time (in ticks) in various power states (Tick)
system.cpu.dcache.tags.tagsInUse           511.899803                       # Average ticks per tags in use ((Tick/Count))
system.cpu.dcache.tags.totalRefs             36580036                       # Total number of references to valid blocks. (Count)
system.cpu.dcache.tags.sampledRefs             464369                       # Sample count of references to valid blocks. (Count)
system.cpu.dcache.tags.avgRefs              78.773639                       # Average number of references to valid blocks. ((Count/Count))
system.cpu.dcache.tags.warmupTick              167000                       # The tick when the warmup percentage was hit. (Tick)
system.cpu.dcache.tags.occupancies::cpu.data   511.899803                       # Average occupied blocks per tick, per requestor ((Count/Tick))
system.cpu.dcache.tags.avgOccs::cpu.data     0.999804                       # Average percentage of cache occupancy ((Ratio/Tick))
system.cpu.dcache.tags.avgOccs::total        0.999804                       # Average percentage of cache occupancy ((Ratio/Tick))
system.cpu.dcache.tags.occupanciesTaskId::1024          512                       # Occupied blocks per task id (Count)
system.cpu.dcache.tags.ageTaskId_1024::0           49                       # Occupied blocks per task id, per block age (Count)
system.cpu.dcache.tags.ageTaskId_1024::1          375                       # Occupied blocks per task id, per block age (Count)
system.cpu.dcache.tags.ageTaskId_1024::2           88                       # Occupied blocks per task id, per block age (Count)
system.cpu.dcache.tags.ratioOccsTaskId::1024            1                       # Ratio of occupied blocks and all blocks, per task id (Ratio)
system.cpu.dcache.tags.tagAccesses          294123609                       # Number of tag accesses (Count)
system.cpu.dcache.tags.dataAccesses         294123609                       # Number of data accesses (Count)
system.cpu.dcache.tags.power_state.pwrStateResidencyTicks::UNDEFINED 266442312000                       # Cumulative time (in ticks) in various power states (Tick)
system.cpu.dtb_walker_cache.blockedCycles::no_mshrs            0                       # number of cycles access was blocked (Cycle)
system.cpu.dtb_walker_cache.blockedCycles::no_targets            0                       # number of cycles access was blocked (Cycle)
system.cpu.dtb_walker_cache.blockedCauses::no_mshrs            0                       # number of times access was blocked (Count)
system.cpu.dtb_walker_cache.blockedCauses::no_targets            0                       # number of times access was blocked (Count)
system.cpu.dtb_walker_cache.avgBlocked::no_mshrs          nan                       # average number of cycles each access was blocked ((Cycle/Count))
system.cpu.dtb_walker_cache.avgBlocked::no_targets          nan                       # average number of cycles each access was blocked ((Cycle/Count))
system.cpu.dtb_walker_cache.replacements            0                       # number of replacements (Count)
system.cpu.dtb_walker_cache.power_state.pwrStateResidencyTicks::UNDEFINED 266442312000                       # Cumulative time (in ticks) in various power states (Tick)
system.cpu.dtb_walker_cache.tags.tagsInUse            0                       # Average ticks per tags in use ((Tick/Count))
system.cpu.dtb_walker_cache.tags.totalRefs            0                       # Total number of references to valid blocks. (Count)
system.cpu.dtb_walker_cache.tags.sampledRefs            0                       # Sample count of references to valid blocks. (Count)
system.cpu.dtb_walker_cache.tags.avgRefs          nan                       # Average number of references to valid blocks. ((Count/Count))
system.cpu.dtb_walker_cache.tags.warmupTick            0                       # The tick when the warmup percentage was hit. (Tick)
system.cpu.dtb_walker_cache.tags.tagAccesses            0                       # Number of tag accesses (Count)
system.cpu.dtb_walker_cache.tags.dataAccesses            0                       # Number of data accesses (Count)
system.cpu.dtb_walker_cache.tags.power_state.pwrStateResidencyTicks::UNDEFINED 266442312000                       # Cumulative time (in ticks) in various power states (Tick)
system.cpu.fetch2.intInstructions            49129879                       # Number of integer instructions successfully decoded (Count)
system.cpu.fetch2.fpInstructions             98149082                       # Number of floating point instructions successfully decoded (Count)
system.cpu.fetch2.vecInstructions                   0                       # Number of SIMD instructions successfully decoded (Count)
system.cpu.fetch2.loadInstructions           31472434                       # Number of memory load instructions successfully decoded (Count)
system.cpu.fetch2.storeInstructions           6581315                       # Number of memory store instructions successfully decoded (Count)
system.cpu.fetch2.amoInstructions                   0                       # Number of memory atomic instructions successfully decoded (Count)
system.cpu.icache.demandHits::cpu.inst       40007431                       # number of demand (read+write) hits (Count)
system.cpu.icache.demandHits::total          40007431                       # number of demand (read+write) hits (Count)
system.cpu.icache.overallHits::cpu.inst      40007431                       # number of overall hits (Count)
system.cpu.icache.overallHits::total         40007431                       # number of overall hits (Count)
system.cpu.icache.demandMisses::cpu.inst         3848                       # number of demand (read+write) misses (Count)
system.cpu.icache.demandMisses::total            3848                       # number of demand (read+write) misses (Count)
system.cpu.icache.overallMisses::cpu.inst         3848                       # number of overall misses (Count)
system.cpu.icache.overallMisses::total           3848                       # number of overall misses (Count)
system.cpu.icache.demandMissLatency::cpu.inst    249076000                       # number of demand (read+write) miss ticks (Tick)
system.cpu.icache.demandMissLatency::total    249076000                       # number of demand (read+write) miss ticks (Tick)
system.cpu.icache.overallMissLatency::cpu.inst    249076000                       # number of overall miss ticks (Tick)
system.cpu.icache.overallMissLatency::total    249076000                       # number of overall miss ticks (Tick)
system.cpu.icache.demandAccesses::cpu.inst     40011279                       # number of demand (read+write) accesses (Count)
system.cpu.icache.demandAccesses::total      40011279                       # number of demand (read+write) accesses (Count)
system.cpu.icache.overallAccesses::cpu.inst     40011279                       # number of overall (read+write) accesses (Count)
system.cpu.icache.overallAccesses::total     40011279                       # number of overall (read+write) accesses (Count)
system.cpu.icache.demandMissRate::cpu.inst     0.000096                       # miss rate for demand accesses (Ratio)
system.cpu.icache.demandMissRate::total      0.000096                       # miss rate for demand accesses (Ratio)
system.cpu.icache.overallMissRate::cpu.inst     0.000096                       # miss rate for overall accesses (Ratio)
system.cpu.icache.overallMissRate::total     0.000096                       # miss rate for overall accesses (Ratio)
system.cpu.icache.demandAvgMissLatency::cpu.inst 64728.690229                       # average overall miss latency in ticks ((Tick/Count))
system.cpu.icache.demandAvgMissLatency::total 64728.690229                       # average overall miss latency in ticks ((Tick/Count))
system.cpu.icache.overallAvgMissLatency::cpu.inst 64728.690229                       # average overall miss latency ((Tick/Count))
system.cpu.icache.overallAvgMissLatency::total 64728.690229                       # average overall miss latency ((Tick/Count))
system.cpu.icache.blockedCycles::no_mshrs            0                       # number of cycles access was blocked (Cycle)
system.cpu.icache.blockedCycles::no_targets            0                       # number of cycles access was blocked (Cycle)
system.cpu.icache.blockedCauses::no_mshrs            0                       # number of times access was blocked (Count)
system.cpu.icache.blockedCauses::no_targets            0                       # number of times access was blocked (Count)
system.cpu.icache.avgBlocked::no_mshrs            nan                       # average number of cycles each access was blocked ((Cycle/Count))
system.cpu.icache.avgBlocked::no_targets          nan                       # average number of cycles each access was blocked ((Cycle/Count))
system.cpu.icache.writebacks::writebacks         3591                       # number of writebacks (Count)
system.cpu.icache.writebacks::total              3591                       # number of writebacks (Count)
system.cpu.icache.demandMshrMisses::cpu.inst         3848                       # number of demand (read+write) MSHR misses (Count)
system.cpu.icache.demandMshrMisses::total         3848                       # number of demand (read+write) MSHR misses (Count)
system.cpu.icache.overallMshrMisses::cpu.inst         3848                       # number of overall MSHR misses (Count)
system.cpu.icache.overallMshrMisses::total         3848                       # number of overall MSHR misses (Count)
system.cpu.icache.demandMshrMissLatency::cpu.inst    241382000                       # number of demand (read+write) MSHR miss ticks (Tick)
system.cpu.icache.demandMshrMissLatency::total    241382000                       # number of demand (read+write) MSHR miss ticks (Tick)
system.cpu.icache.overallMshrMissLatency::cpu.inst    241382000                       # number of overall MSHR miss ticks (Tick)
system.cpu.icache.overallMshrMissLatency::total    241382000                       # number of overall MSHR miss ticks (Tick)
system.cpu.icache.demandMshrMissRate::cpu.inst     0.000096                       # mshr miss ratio for demand accesses (Ratio)
system.cpu.icache.demandMshrMissRate::total     0.000096                       # mshr miss ratio for demand accesses (Ratio)
system.cpu.icache.overallMshrMissRate::cpu.inst     0.000096                       # mshr miss ratio for overall accesses (Ratio)
system.cpu.icache.overallMshrMissRate::total     0.000096                       # mshr miss ratio for overall accesses (Ratio)
system.cpu.icache.demandAvgMshrMissLatency::cpu.inst 62729.209979                       # average overall mshr miss latency ((Tick/Count))
system.cpu.icache.demandAvgMshrMissLatency::total 62729.209979                       # average overall mshr miss latency ((Tick/Count))
system.cpu.icache.overallAvgMshrMissLatency::cpu.inst 62729.209979                       # average overall mshr miss latency ((Tick/Count))
system.cpu.icache.overallAvgMshrMissLatency::total 62729.209979                       # average overall mshr miss latency ((Tick/Count))
system.cpu.icache.replacements                   3591                       # number of replacements (Count)
system.cpu.icache.ReadReq.hits::cpu.inst     40007431                       # number of ReadReq hits (Count)
system.cpu.icache.ReadReq.hits::total        40007431                       # number of ReadReq hits (Count)
system.cpu.icache.ReadReq.misses::cpu.inst         3848                       # number of ReadReq misses (Count)
system.cpu.icache.ReadReq.misses::total          3848                       # number of ReadReq misses (Count)
system.cpu.icache.ReadReq.missLatency::cpu.inst    249076000                       # number of ReadReq miss ticks (Tick)
system.cpu.icache.ReadReq.missLatency::total    249076000                       # number of ReadReq miss ticks (Tick)
system.cpu.icache.ReadReq.accesses::cpu.inst     40011279                       # number of ReadReq accesses(hits+misses) (Count)
system.cpu.icache.ReadReq.accesses::total     40011279                       # number of ReadReq accesses(hits+misses) (Count)
system.cpu.icache.ReadReq.missRate::cpu.inst     0.000096                       # miss rate for ReadReq accesses (Ratio)
system.cpu.icache.ReadReq.missRate::total     0.000096                       # miss rate for ReadReq accesses (Ratio)
system.cpu.icache.ReadReq.avgMissLatency::cpu.inst 64728.690229                       # average ReadReq miss latency ((Tick/Count))
system.cpu.icache.ReadReq.avgMissLatency::total 64728.690229                       # average ReadReq miss latency ((Tick/Count))
system.cpu.icache.ReadReq.mshrMisses::cpu.inst         3848                       # number of ReadReq MSHR misses (Count)
system.cpu.icache.ReadReq.mshrMisses::total         3848                       # number of ReadReq MSHR misses (Count)
system.cpu.icache.ReadReq.mshrMissLatency::cpu.inst    241382000                       # number of ReadReq MSHR miss ticks (Tick)
system.cpu.icache.ReadReq.mshrMissLatency::total    241382000                       # number of ReadReq MSHR miss ticks (Tick)
system.cpu.icache.ReadReq.mshrMissRate::cpu.inst     0.000096                       # mshr miss rate for ReadReq accesses (Ratio)
system.cpu.icache.ReadReq.mshrMissRate::total     0.000096                       # mshr miss rate for ReadReq accesses (Ratio)
system.cpu.icache.ReadReq.avgMshrMissLatency::cpu.inst 62729.209979                       # average ReadReq mshr miss latency ((Tick/Count))
system.cpu.icache.ReadReq.avgMshrMissLatency::total 62729.209979                       # average ReadReq mshr miss latency ((Tick/Count))
system.cpu.icache.power_state.pwrStateResidencyTicks::UNDEFINED 266442312000                       # Cumulative time (in ticks) in various power states (Tick)
system.cpu.icache.tags.tagsInUse           255.921516                       # Average ticks per tags in use ((Tick/Count))
system.cpu.icache.tags.totalRefs             40011278                       # Total number of references to valid blocks. (Count)
system.cpu.icache.tags.sampledRefs               3847                       # Sample count of references to valid blocks. (Count)
system.cpu.icache.tags.avgRefs           10400.644138                       # Average number of references to valid blocks. ((Count/Count))
system.cpu.icache.tags.warmupTick               77000                       # The tick when the warmup percentage was hit. (Tick)
system.cpu.icache.tags.occupancies::cpu.inst   255.921516                       # Average occupied blocks per tick, per requestor ((Count/Tick))
system.cpu.icache.tags.avgOccs::cpu.inst     0.999693                       # Average percentage of cache occupancy ((Ratio/Tick))
system.cpu.icache.tags.avgOccs::total        0.999693                       # Average percentage of cache occupancy ((Ratio/Tick))
system.cpu.icache.tags.occupanciesTaskId::1024          256                       # Occupied blocks per task id (Count)
system.cpu.icache.tags.ageTaskId_1024::0           54                       # Occupied blocks per task id, per block age (Count)
system.cpu.icache.tags.ageTaskId_1024::2          200                       # Occupied blocks per task id, per block age (Count)
system.cpu.icache.tags.ageTaskId_1024::4            2                       # Occupied blocks per task id, per block age (Count)
system.cpu.icache.tags.ratioOccsTaskId::1024            1                       # Ratio of occupied blocks and all blocks, per task id (Ratio)
system.cpu.icache.tags.tagAccesses          160048963                       # Number of tag accesses (Count)
system.cpu.icache.tags.dataAccesses         160048963                       # Number of data accesses (Count)
system.cpu.icache.tags.power_state.pwrStateResidencyTicks::UNDEFINED 266442312000                       # Cumulative time (in ticks) in various power states (Tick)
system.cpu.itb_walker_cache.blockedCycles::no_mshrs            0                       # number of cycles access was blocked (Cycle)
system.cpu.itb_walker_cache.blockedCycles::no_targets            0                       # number of cycles access was blocked (Cycle)
system.cpu.itb_walker_cache.blockedCauses::no_mshrs            0                       # number of times access was blocked (Count)
system.cpu.itb_walker_cache.blockedCauses::no_targets            0                       # number of times access was blocked (Count)
system.cpu.itb_walker_cache.avgBlocked::no_mshrs          nan                       # average number of cycles each access was blocked ((Cycle/Count))
system.cpu.itb_walker_cache.avgBlocked::no_targets          nan                       # average number of cycles each access was blocked ((Cycle/Count))
system.cpu.itb_walker_cache.replacements            0                       # number of replacements (Count)
system.cpu.itb_walker_cache.power_state.pwrStateResidencyTicks::UNDEFINED 266442312000                       # Cumulative time (in ticks) in various power states (Tick)
system.cpu.itb_walker_cache.tags.tagsInUse            0                       # Average ticks per tags in use ((Tick/Count))
system.cpu.itb_walker_cache.tags.totalRefs            0                       # Total number of references to valid blocks. (Count)
system.cpu.itb_walker_cache.tags.sampledRefs            0                       # Sample count of references to valid blocks. (Count)
system.cpu.itb_walker_cache.tags.avgRefs          nan                       # Average number of references to valid blocks. ((Count/Count))
system.cpu.itb_walker_cache.tags.warmupTick            0                       # The tick when the warmup percentage was hit. (Tick)
system.cpu.itb_walker_cache.tags.tagAccesses            0                       # Number of tag accesses (Count)
system.cpu.itb_walker_cache.tags.dataAccesses            0                       # Number of data accesses (Count)
system.cpu.itb_walker_cache.tags.power_state.pwrStateResidencyTicks::UNDEFINED 266442312000                       # Cumulative time (in ticks) in various power states (Tick)
system.cpu.mmu.dtb.readHits                         0                       # read hits (Count)
system.cpu.mmu.dtb.readMisses                       0                       # read misses (Count)
system.cpu.mmu.dtb.readAccesses                     0                       # read accesses (Count)
system.cpu.mmu.dtb.writeHits                        0                       # write hits (Count)
system.cpu.mmu.dtb.writeMisses                      0                       # write misses (Count)
system.cpu.mmu.dtb.writeAccesses                    0                       # write accesses (Count)
system.cpu.mmu.dtb.hits                             0                       # Total TLB (read and write) hits (Count)
system.cpu.mmu.dtb.misses                           0                       # Total TLB (read and write) misses (Count)
system.cpu.mmu.dtb.accesses                         0                       # Total TLB (read and write) accesses (Count)
system.cpu.mmu.dtb.walker.power_state.pwrStateResidencyTicks::UNDEFINED 266442312000                       # Cumulative time (in ticks) in various power states (Tick)
system.cpu.mmu.itb.readHits                         0                       # read hits (Count)
system.cpu.mmu.itb.readMisses                       0                       # read misses (Count)
system.cpu.mmu.itb.readAccesses                     0                       # read accesses (Count)
system.cpu.mmu.itb.writeHits                        0                       # write hits (Count)
system.cpu.mmu.itb.writeMisses                      0                       # write misses (Count)
system.cpu.mmu.itb.writeAccesses                    0                       # write accesses (Count)
system.cpu.mmu.itb.hits                             0                       # Total TLB (read and write) hits (Count)
system.cpu.mmu.itb.misses                           0                       # Total TLB (read and write) misses (Count)
system.cpu.mmu.itb.accesses                         0                       # Total TLB (read and write) accesses (Count)
system.cpu.mmu.itb.walker.power_state.pwrStateResidencyTicks::UNDEFINED 266442312000                       # Cumulative time (in ticks) in various power states (Tick)
system.cpu.power_state.pwrStateResidencyTicks::ON 266442312000                       # Cumulative time (in ticks) in various power states (Tick)
system.cpu.thread_0.numInsts                178692065                       # Number of Instructions committed (Count)
system.cpu.thread_0.numOps                  178697645                       # Number of Ops committed (Count)
system.cpu.thread_0.numMemRefs                      0                       # Number of Memory References (Count)
system.cpu.workload.numSyscalls                   196                       # Number of system calls (Count)
system.cpu_clk_domain.clock                      1000                       # Clock period in ticks (Tick)
system.cpu_voltage_domain.voltage                   1                       # Voltage in Volts (Volt)
system.mem_ctrls.avgPriority_writebacks::samples    157181.00                       # Average QoS priority value for accepted requests (Count)
system.mem_ctrls.avgPriority_cpu.inst::samples      3682.00                       # Average QoS priority value for accepted requests (Count)
system.mem_ctrls.avgPriority_cpu.data::samples    456940.00                       # Average QoS priority value for accepted requests (Count)
system.mem_ctrls.priorityMinLatency      0.000000018750                       # per QoS priority minimum request to response latency (Second)
system.mem_ctrls.priorityMaxLatency      0.002400068500                       # per QoS priority maximum request to response latency (Second)
system.mem_ctrls.numReadWriteTurnArounds         9364                       # Number of turnarounds from READ to WRITE (Count)
system.mem_ctrls.numWriteReadTurnArounds         9364                       # Number of turnarounds from WRITE to READ (Count)
system.mem_ctrls.numStayReadState             1138051                       # Number of times bus staying in READ state (Count)
system.mem_ctrls.numStayWriteState             147932                       # Number of times bus staying in WRITE state (Count)
system.mem_ctrls.readReqs                      468217                       # Number of read requests accepted (Count)
system.mem_ctrls.writeReqs                     157759                       # Number of write requests accepted (Count)
system.mem_ctrls.readBursts                    468217                       # Number of controller read bursts, including those serviced by the write queue (Count)
system.mem_ctrls.writeBursts                   157759                       # Number of controller write bursts, including those merged in the write queue (Count)
system.mem_ctrls.servicedByWrQ                   7595                       # Number of controller read bursts serviced by the write queue (Count)
system.mem_ctrls.mergedWrBursts                   578                       # Number of controller write bursts merged with an existing one (Count)
system.mem_ctrls.neitherReadNorWriteReqs            0                       # Number of requests that are neither read nor write (Count)
system.mem_ctrls.avgRdQLen                       1.03                       # Average read queue length when enqueuing ((Count/Tick))
system.mem_ctrls.avgWrQLen                      25.06                       # Average write queue length when enqueuing ((Count/Tick))
system.mem_ctrls.numRdRetry                         0                       # Number of times read queue was full causing retry (Count)
system.mem_ctrls.numWrRetry                         0                       # Number of times write queue was full causing retry (Count)
system.mem_ctrls.readPktSize::0                     0                       # Read request sizes (log2) (Count)
system.mem_ctrls.readPktSize::1                     0                       # Read request sizes (log2) (Count)
system.mem_ctrls.readPktSize::2                     0                       # Read request sizes (log2) (Count)
system.mem_ctrls.readPktSize::3                     0                       # Read request sizes (log2) (Count)
system.mem_ctrls.readPktSize::4                     0                       # Read request sizes (log2) (Count)
system.mem_ctrls.readPktSize::5                     0                       # Read request sizes (log2) (Count)
system.mem_ctrls.readPktSize::6                468217                       # Read request sizes (log2) (Count)
system.mem_ctrls.writePktSize::0                    0                       # Write request sizes (log2) (Count)
system.mem_ctrls.writePktSize::1                    0                       # Write request sizes (log2) (Count)
system.mem_ctrls.writePktSize::2                    0                       # Write request sizes (log2) (Count)
system.mem_ctrls.writePktSize::3                    0                       # Write request sizes (log2) (Count)
system.mem_ctrls.writePktSize::4                    0                       # Write request sizes (log2) (Count)
system.mem_ctrls.writePktSize::5                    0                       # Write request sizes (log2) (Count)
system.mem_ctrls.writePktSize::6               157759                       # Write request sizes (log2) (Count)
system.mem_ctrls.rdQLenPdf::0                  437717                       # What read queue length does an incoming req see (Count)
system.mem_ctrls.rdQLenPdf::1                   22776                       # What read queue length does an incoming req see (Count)
system.mem_ctrls.rdQLenPdf::2                     129                       # What read queue length does an incoming req see (Count)
system.mem_ctrls.rdQLenPdf::3                       0                       # What read queue length does an incoming req see (Count)
system.mem_ctrls.rdQLenPdf::4                       0                       # What read queue length does an incoming req see (Count)
system.mem_ctrls.rdQLenPdf::5                       0                       # What read queue length does an incoming req see (Count)
system.mem_ctrls.rdQLenPdf::6                       0                       # What read queue length does an incoming req see (Count)
system.mem_ctrls.rdQLenPdf::7                       0                       # What read queue length does an incoming req see (Count)
system.mem_ctrls.rdQLenPdf::8                       0                       # What read queue length does an incoming req see (Count)
system.mem_ctrls.rdQLenPdf::9                       0                       # What read queue length does an incoming req see (Count)
system.mem_ctrls.rdQLenPdf::10                      0                       # What read queue length does an incoming req see (Count)
system.mem_ctrls.rdQLenPdf::11                      0                       # What read queue length does an incoming req see (Count)
system.mem_ctrls.rdQLenPdf::12                      0                       # What read queue length does an incoming req see (Count)
system.mem_ctrls.rdQLenPdf::13                      0                       # What read queue length does an incoming req see (Count)
system.mem_ctrls.rdQLenPdf::14                      0                       # What read queue length does an incoming req see (Count)
system.mem_ctrls.rdQLenPdf::15                      0                       # What read queue length does an incoming req see (Count)
system.mem_ctrls.rdQLenPdf::16                      0                       # What read queue length does an incoming req see (Count)
system.mem_ctrls.rdQLenPdf::17                      0                       # What read queue length does an incoming req see (Count)
system.mem_ctrls.rdQLenPdf::18                      0                       # What read queue length does an incoming req see (Count)
system.mem_ctrls.rdQLenPdf::19                      0                       # What read queue length does an incoming req see (Count)
system.mem_ctrls.rdQLenPdf::20                      0                       # What read queue length does an incoming req see (Count)
system.mem_ctrls.rdQLenPdf::21                      0                       # What read queue length does an incoming req see (Count)
system.mem_ctrls.rdQLenPdf::22                      0                       # What read queue length does an incoming req see (Count)
system.mem_ctrls.rdQLenPdf::23                      0                       # What read queue length does an incoming req see (Count)
system.mem_ctrls.rdQLenPdf::24                      0                       # What read queue length does an incoming req see (Count)
system.mem_ctrls.rdQLenPdf::25                      0                       # What read queue length does an incoming req see (Count)
system.mem_ctrls.rdQLenPdf::26                      0                       # What read queue length does an incoming req see (Count)
system.mem_ctrls.rdQLenPdf::27                      0                       # What read queue length does an incoming req see (Count)
system.mem_ctrls.rdQLenPdf::28                      0                       # What read queue length does an incoming req see (Count)
system.mem_ctrls.rdQLenPdf::29                      0                       # What read queue length does an incoming req see (Count)
system.mem_ctrls.rdQLenPdf::30                      0                       # What read queue length does an incoming req see (Count)
system.mem_ctrls.rdQLenPdf::31                      0                       # What read queue length does an incoming req see (Count)
system.mem_ctrls.wrQLenPdf::0                       1                       # What write queue length does an incoming req see (Count)
system.mem_ctrls.wrQLenPdf::1                       1                       # What write queue length does an incoming req see (Count)
system.mem_ctrls.wrQLenPdf::2                       1                       # What write queue length does an incoming req see (Count)
system.mem_ctrls.wrQLenPdf::3                       1                       # What write queue length does an incoming req see (Count)
system.mem_ctrls.wrQLenPdf::4                       1                       # What write queue length does an incoming req see (Count)
system.mem_ctrls.wrQLenPdf::5                       1                       # What write queue length does an incoming req see (Count)
system.mem_ctrls.wrQLenPdf::6                       1                       # What write queue length does an incoming req see (Count)
system.mem_ctrls.wrQLenPdf::7                       1                       # What write queue length does an incoming req see (Count)
system.mem_ctrls.wrQLenPdf::8                       1                       # What write queue length does an incoming req see (Count)
system.mem_ctrls.wrQLenPdf::9                       1                       # What write queue length does an incoming req see (Count)
system.mem_ctrls.wrQLenPdf::10                      1                       # What write queue length does an incoming req see (Count)
system.mem_ctrls.wrQLenPdf::11                      1                       # What write queue length does an incoming req see (Count)
system.mem_ctrls.wrQLenPdf::12                      1                       # What write queue length does an incoming req see (Count)
system.mem_ctrls.wrQLenPdf::13                      1                       # What write queue length does an incoming req see (Count)
system.mem_ctrls.wrQLenPdf::14                      1                       # What write queue length does an incoming req see (Count)
system.mem_ctrls.wrQLenPdf::15                   3478                       # What write queue length does an incoming req see (Count)
system.mem_ctrls.wrQLenPdf::16                   3694                       # What write queue length does an incoming req see (Count)
system.mem_ctrls.wrQLenPdf::17                   8878                       # What write queue length does an incoming req see (Count)
system.mem_ctrls.wrQLenPdf::18                   9428                       # What write queue length does an incoming req see (Count)
system.mem_ctrls.wrQLenPdf::19                   9435                       # What write queue length does an incoming req see (Count)
system.mem_ctrls.wrQLenPdf::20                   9400                       # What write queue length does an incoming req see (Count)
system.mem_ctrls.wrQLenPdf::21                   9399                       # What write queue length does an incoming req see (Count)
system.mem_ctrls.wrQLenPdf::22                   9431                       # What write queue length does an incoming req see (Count)
system.mem_ctrls.wrQLenPdf::23                   9424                       # What write queue length does an incoming req see (Count)
system.mem_ctrls.wrQLenPdf::24                   9397                       # What write queue length does an incoming req see (Count)
system.mem_ctrls.wrQLenPdf::25                   9403                       # What write queue length does an incoming req see (Count)
system.mem_ctrls.wrQLenPdf::26                   9485                       # What write queue length does an incoming req see (Count)
system.mem_ctrls.wrQLenPdf::27                   9397                       # What write queue length does an incoming req see (Count)
system.mem_ctrls.wrQLenPdf::28                   9392                       # What write queue length does an incoming req see (Count)
system.mem_ctrls.wrQLenPdf::29                   9431                       # What write queue length does an incoming req see (Count)
system.mem_ctrls.wrQLenPdf::30                   9366                       # What write queue length does an incoming req see (Count)
system.mem_ctrls.wrQLenPdf::31                   9364                       # What write queue length does an incoming req see (Count)
system.mem_ctrls.wrQLenPdf::32                   9364                       # What write queue length does an incoming req see (Count)
system.mem_ctrls.wrQLenPdf::33                      0                       # What write queue length does an incoming req see (Count)
system.mem_ctrls.wrQLenPdf::34                      0                       # What write queue length does an incoming req see (Count)
system.mem_ctrls.wrQLenPdf::35                      0                       # What write queue length does an incoming req see (Count)
system.mem_ctrls.wrQLenPdf::36                      0                       # What write queue length does an incoming req see (Count)
system.mem_ctrls.wrQLenPdf::37                      0                       # What write queue length does an incoming req see (Count)
system.mem_ctrls.wrQLenPdf::38                      0                       # What write queue length does an incoming req see (Count)
system.mem_ctrls.wrQLenPdf::39                      0                       # What write queue length does an incoming req see (Count)
system.mem_ctrls.wrQLenPdf::40                      0                       # What write queue length does an incoming req see (Count)
system.mem_ctrls.wrQLenPdf::41                      0                       # What write queue length does an incoming req see (Count)
system.mem_ctrls.wrQLenPdf::42                      0                       # What write queue length does an incoming req see (Count)
system.mem_ctrls.wrQLenPdf::43                      0                       # What write queue length does an incoming req see (Count)
system.mem_ctrls.wrQLenPdf::44                      0                       # What write queue length does an incoming req see (Count)
system.mem_ctrls.wrQLenPdf::45                      0                       # What write queue length does an incoming req see (Count)
system.mem_ctrls.wrQLenPdf::46                      0                       # What write queue length does an incoming req see (Count)
system.mem_ctrls.wrQLenPdf::47                      0                       # What write queue length does an incoming req see (Count)
system.mem_ctrls.wrQLenPdf::48                      0                       # What write queue length does an incoming req see (Count)
system.mem_ctrls.wrQLenPdf::49                      0                       # What write queue length does an incoming req see (Count)
system.mem_ctrls.wrQLenPdf::50                      0                       # What write queue length does an incoming req see (Count)
system.mem_ctrls.wrQLenPdf::51                      0                       # What write queue length does an incoming req see (Count)
system.mem_ctrls.wrQLenPdf::52                      0                       # What write queue length does an incoming req see (Count)
system.mem_ctrls.wrQLenPdf::53                      0                       # What write queue length does an incoming req see (Count)
system.mem_ctrls.wrQLenPdf::54                      0                       # What write queue length does an incoming req see (Count)
system.mem_ctrls.wrQLenPdf::55                      0                       # What write queue length does an incoming req see (Count)
system.mem_ctrls.wrQLenPdf::56                      0                       # What write queue length does an incoming req see (Count)
system.mem_ctrls.wrQLenPdf::57                      0                       # What write queue length does an incoming req see (Count)
system.mem_ctrls.wrQLenPdf::58                      0                       # What write queue length does an incoming req see (Count)
system.mem_ctrls.wrQLenPdf::59                      0                       # What write queue length does an incoming req see (Count)
system.mem_ctrls.wrQLenPdf::60                      0                       # What write queue length does an incoming req see (Count)
system.mem_ctrls.wrQLenPdf::61                      0                       # What write queue length does an incoming req see (Count)
system.mem_ctrls.wrQLenPdf::62                      0                       # What write queue length does an incoming req see (Count)
system.mem_ctrls.wrQLenPdf::63                      0                       # What write queue length does an incoming req see (Count)
system.mem_ctrls.rdPerTurnAround::samples         9364                       # Reads before turning the bus around for writes (Count)
system.mem_ctrls.rdPerTurnAround::mean      49.190196                       # Reads before turning the bus around for writes (Count)
system.mem_ctrls.rdPerTurnAround::gmean     38.010372                       # Reads before turning the bus around for writes (Count)
system.mem_ctrls.rdPerTurnAround::stdev     46.646546                       # Reads before turning the bus around for writes (Count)
system.mem_ctrls.rdPerTurnAround::0-31           4534     48.42%     48.42% # Reads before turning the bus around for writes (Count)
system.mem_ctrls.rdPerTurnAround::32-63          2635     28.14%     76.56% # Reads before turning the bus around for writes (Count)
system.mem_ctrls.rdPerTurnAround::64-95          1102     11.77%     88.33% # Reads before turning the bus around for writes (Count)
system.mem_ctrls.rdPerTurnAround::96-127          565      6.03%     94.36% # Reads before turning the bus around for writes (Count)
system.mem_ctrls.rdPerTurnAround::128-159          277      2.96%     97.32% # Reads before turning the bus around for writes (Count)
system.mem_ctrls.rdPerTurnAround::160-191          130      1.39%     98.71% # Reads before turning the bus around for writes (Count)
system.mem_ctrls.rdPerTurnAround::192-223           62      0.66%     99.37% # Reads before turning the bus around for writes (Count)
system.mem_ctrls.rdPerTurnAround::224-255           26      0.28%     99.65% # Reads before turning the bus around for writes (Count)
system.mem_ctrls.rdPerTurnAround::256-287            6      0.06%     99.71% # Reads before turning the bus around for writes (Count)
system.mem_ctrls.rdPerTurnAround::288-319            4      0.04%     99.75% # Reads before turning the bus around for writes (Count)
system.mem_ctrls.rdPerTurnAround::320-351            1      0.01%     99.77% # Reads before turning the bus around for writes (Count)
system.mem_ctrls.rdPerTurnAround::352-383            1      0.01%     99.78% # Reads before turning the bus around for writes (Count)
system.mem_ctrls.rdPerTurnAround::384-415            1      0.01%     99.79% # Reads before turning the bus around for writes (Count)
system.mem_ctrls.rdPerTurnAround::416-447            3      0.03%     99.82% # Reads before turning the bus around for writes (Count)
system.mem_ctrls.rdPerTurnAround::448-479            4      0.04%     99.86% # Reads before turning the bus around for writes (Count)
system.mem_ctrls.rdPerTurnAround::480-511            3      0.03%     99.89% # Reads before turning the bus around for writes (Count)
system.mem_ctrls.rdPerTurnAround::640-671            3      0.03%     99.93% # Reads before turning the bus around for writes (Count)
system.mem_ctrls.rdPerTurnAround::672-703            6      0.06%     99.99% # Reads before turning the bus around for writes (Count)
system.mem_ctrls.rdPerTurnAround::768-799            1      0.01%    100.00% # Reads before turning the bus around for writes (Count)
system.mem_ctrls.rdPerTurnAround::total          9364                       # Reads before turning the bus around for writes (Count)
system.mem_ctrls.wrPerTurnAround::samples         9364                       # Writes before turning the bus around for reads (Count)
system.mem_ctrls.wrPerTurnAround::mean      16.783426                       # Writes before turning the bus around for reads (Count)
system.mem_ctrls.wrPerTurnAround::gmean     16.755238                       # Writes before turning the bus around for reads (Count)
system.mem_ctrls.wrPerTurnAround::stdev      0.982099                       # Writes before turning the bus around for reads (Count)
system.mem_ctrls.wrPerTurnAround::16             5633     60.16%     60.16% # Writes before turning the bus around for reads (Count)
system.mem_ctrls.wrPerTurnAround::17              241      2.57%     62.73% # Writes before turning the bus around for reads (Count)
system.mem_ctrls.wrPerTurnAround::18             3376     36.05%     98.78% # Writes before turning the bus around for reads (Count)
system.mem_ctrls.wrPerTurnAround::19              113      1.21%     99.99% # Writes before turning the bus around for reads (Count)
system.mem_ctrls.wrPerTurnAround::20                1      0.01%    100.00% # Writes before turning the bus around for reads (Count)
system.mem_ctrls.wrPerTurnAround::total          9364                       # Writes before turning the bus around for reads (Count)
system.mem_ctrls.bytesReadWrQ                  486080                       # Total number of bytes read from write queue (Byte)
system.mem_ctrls.bytesReadSys                29965888                       # Total read bytes from the system interface side (Byte)
system.mem_ctrls.bytesWrittenSys             10096576                       # Total written bytes from the system interface side (Byte)
system.mem_ctrls.avgRdBWSys              112466701.61006559                       # Average system read bandwidth in Byte/s ((Byte/Second))
system.mem_ctrls.avgWrBWSys              37894041.39384589                       # Average system write bandwidth in Byte/s ((Byte/Second))
system.mem_ctrls.totGap                  266442307000                       # Total gap between requests (Tick)
system.mem_ctrls.avgGap                     425643.01                       # Average gap between requests ((Tick/Count))
system.mem_ctrls.requestorReadBytes::cpu.inst       235648                       # Per-requestor bytes read from memory (Byte)
system.mem_ctrls.requestorReadBytes::cpu.data     29244160                       # Per-requestor bytes read from memory (Byte)
system.mem_ctrls.requestorWriteBytes::writebacks     10058240                       # Per-requestor bytes write to memory (Byte)
system.mem_ctrls.requestorReadRate::cpu.inst 884424.092521761311                       # Per-requestor bytes read from memory rate ((Byte/Second))
system.mem_ctrls.requestorReadRate::cpu.data 109757942.649889633060                       # Per-requestor bytes read from memory rate ((Byte/Second))
system.mem_ctrls.requestorWriteRate::writebacks 37750160.342400871217                       # Per-requestor bytes write to memory rate ((Byte/Second))
system.mem_ctrls.requestorReadAccesses::cpu.inst         3848                       # Per-requestor read serviced memory accesses (Count)
system.mem_ctrls.requestorReadAccesses::cpu.data       464369                       # Per-requestor read serviced memory accesses (Count)
system.mem_ctrls.requestorWriteAccesses::writebacks       157759                       # Per-requestor write serviced memory accesses (Count)
system.mem_ctrls.requestorReadTotalLat::cpu.inst    117143750                       # Per-requestor read total memory access latency (Tick)
system.mem_ctrls.requestorReadTotalLat::cpu.data  12901728000                       # Per-requestor read total memory access latency (Tick)
system.mem_ctrls.requestorWriteTotalLat::writebacks 6403504138750                       # Per-requestor write total memory access latency (Tick)
system.mem_ctrls.requestorReadAvgLat::cpu.inst     30442.76                       # Per-requestor read average memory access latency ((Tick/Count))
system.mem_ctrls.requestorReadAvgLat::cpu.data     27783.35                       # Per-requestor read average memory access latency ((Tick/Count))
system.mem_ctrls.requestorWriteAvgLat::writebacks  40590420.44                       # Per-requestor write average memory access latency ((Tick/Count))
system.mem_ctrls.dram.bytesRead::cpu.inst       246208                       # Number of bytes read from this memory (Byte)
system.mem_ctrls.dram.bytesRead::cpu.data     29719616                       # Number of bytes read from this memory (Byte)
system.mem_ctrls.dram.bytesRead::total       29965824                       # Number of bytes read from this memory (Byte)
system.mem_ctrls.dram.bytesInstRead::cpu.inst       246208                       # Number of instructions bytes read from this memory (Byte)
system.mem_ctrls.dram.bytesInstRead::total       246208                       # Number of instructions bytes read from this memory (Byte)
system.mem_ctrls.dram.bytesWritten::writebacks      9866880                       # Number of bytes written to this memory (Byte)
system.mem_ctrls.dram.bytesWritten::total      9866880                       # Number of bytes written to this memory (Byte)
system.mem_ctrls.dram.numReads::cpu.inst         3847                       # Number of read requests responded to by this memory (Count)
system.mem_ctrls.dram.numReads::cpu.data       464369                       # Number of read requests responded to by this memory (Count)
system.mem_ctrls.dram.numReads::total          468216                       # Number of read requests responded to by this memory (Count)
system.mem_ctrls.dram.numWrites::writebacks       154170                       # Number of write requests responded to by this memory (Count)
system.mem_ctrls.dram.numWrites::total         154170                       # Number of write requests responded to by this memory (Count)
system.mem_ctrls.dram.bwRead::cpu.inst         924057                       # Total read bandwidth from this memory ((Byte/Second))
system.mem_ctrls.dram.bwRead::cpu.data      111542404                       # Total read bandwidth from this memory ((Byte/Second))
system.mem_ctrls.dram.bwRead::total         112466461                       # Total read bandwidth from this memory ((Byte/Second))
system.mem_ctrls.dram.bwInstRead::cpu.inst       924057                       # Instruction read bandwidth from this memory ((Byte/Second))
system.mem_ctrls.dram.bwInstRead::total        924057                       # Instruction read bandwidth from this memory ((Byte/Second))
system.mem_ctrls.dram.bwWrite::writebacks     37031956                       # Write bandwidth from this memory ((Byte/Second))
system.mem_ctrls.dram.bwWrite::total         37031956                       # Write bandwidth from this memory ((Byte/Second))
system.mem_ctrls.dram.bwTotal::writebacks     37031956                       # Total bandwidth to/from this memory ((Byte/Second))
system.mem_ctrls.dram.bwTotal::cpu.inst        924057                       # Total bandwidth to/from this memory ((Byte/Second))
system.mem_ctrls.dram.bwTotal::cpu.data     111542404                       # Total bandwidth to/from this memory ((Byte/Second))
system.mem_ctrls.dram.bwTotal::total        149498418                       # Total bandwidth to/from this memory ((Byte/Second))
system.mem_ctrls.dram.readBursts               460622                       # Number of DRAM read bursts (Count)
system.mem_ctrls.dram.writeBursts              157160                       # Number of DRAM write bursts (Count)
system.mem_ctrls.dram.perBankRdBursts::0        34257                       # Per bank write bursts (Count)
system.mem_ctrls.dram.perBankRdBursts::1        37793                       # Per bank write bursts (Count)
system.mem_ctrls.dram.perBankRdBursts::2        36294                       # Per bank write bursts (Count)
system.mem_ctrls.dram.perBankRdBursts::3        29413                       # Per bank write bursts (Count)
system.mem_ctrls.dram.perBankRdBursts::4        29034                       # Per bank write bursts (Count)
system.mem_ctrls.dram.perBankRdBursts::5        32519                       # Per bank write bursts (Count)
system.mem_ctrls.dram.perBankRdBursts::6        32211                       # Per bank write bursts (Count)
system.mem_ctrls.dram.perBankRdBursts::7        34711                       # Per bank write bursts (Count)
system.mem_ctrls.dram.perBankRdBursts::8        30592                       # Per bank write bursts (Count)
system.mem_ctrls.dram.perBankRdBursts::9        27384                       # Per bank write bursts (Count)
system.mem_ctrls.dram.perBankRdBursts::10        25934                       # Per bank write bursts (Count)
system.mem_ctrls.dram.perBankRdBursts::11        15654                       # Per bank write bursts (Count)
system.mem_ctrls.dram.perBankRdBursts::12        16181                       # Per bank write bursts (Count)
system.mem_ctrls.dram.perBankRdBursts::13        17177                       # Per bank write bursts (Count)
system.mem_ctrls.dram.perBankRdBursts::14        29939                       # Per bank write bursts (Count)
system.mem_ctrls.dram.perBankRdBursts::15        31529                       # Per bank write bursts (Count)
system.mem_ctrls.dram.perBankWrBursts::0        13331                       # Per bank write bursts (Count)
system.mem_ctrls.dram.perBankWrBursts::1        19888                       # Per bank write bursts (Count)
system.mem_ctrls.dram.perBankWrBursts::2        12587                       # Per bank write bursts (Count)
system.mem_ctrls.dram.perBankWrBursts::3         9450                       # Per bank write bursts (Count)
system.mem_ctrls.dram.perBankWrBursts::4        10128                       # Per bank write bursts (Count)
system.mem_ctrls.dram.perBankWrBursts::5         9414                       # Per bank write bursts (Count)
system.mem_ctrls.dram.perBankWrBursts::6         9183                       # Per bank write bursts (Count)
system.mem_ctrls.dram.perBankWrBursts::7         8628                       # Per bank write bursts (Count)
system.mem_ctrls.dram.perBankWrBursts::8         8861                       # Per bank write bursts (Count)
system.mem_ctrls.dram.perBankWrBursts::9         8715                       # Per bank write bursts (Count)
system.mem_ctrls.dram.perBankWrBursts::10         8587                       # Per bank write bursts (Count)
system.mem_ctrls.dram.perBankWrBursts::11         5899                       # Per bank write bursts (Count)
system.mem_ctrls.dram.perBankWrBursts::12         6385                       # Per bank write bursts (Count)
system.mem_ctrls.dram.perBankWrBursts::13         6375                       # Per bank write bursts (Count)
system.mem_ctrls.dram.perBankWrBursts::14         8788                       # Per bank write bursts (Count)
system.mem_ctrls.dram.perBankWrBursts::15        10941                       # Per bank write bursts (Count)
system.mem_ctrls.dram.totQLat              4382209250                       # Total ticks spent queuing (Tick)
system.mem_ctrls.dram.totBusLat            2303110000                       # Total ticks spent in databus transfers (Tick)
system.mem_ctrls.dram.totMemAccLat        13018871750                       # Total ticks spent from burst creation until serviced by the DRAM (Tick)
system.mem_ctrls.dram.avgQLat                 9513.68                       # Average queueing delay per DRAM burst ((Tick/Count))
system.mem_ctrls.dram.avgBusLat               5000.00                       # Average bus latency per DRAM burst ((Tick/Count))
system.mem_ctrls.dram.avgMemAccLat           28263.68                       # Average memory access latency per DRAM burst ((Tick/Count))
system.mem_ctrls.dram.readRowHits              329265                       # Number of row buffer hits during reads (Count)
system.mem_ctrls.dram.writeRowHits             118057                       # Number of row buffer hits during writes (Count)
system.mem_ctrls.dram.readRowHitRate            71.48                       # Row buffer hit rate for reads (Ratio)
system.mem_ctrls.dram.writeRowHitRate           75.12                       # Row buffer hit rate for writes (Ratio)
system.mem_ctrls.dram.bytesPerActivate::samples       170449                       # Bytes accessed per row activation (Byte)
system.mem_ctrls.dram.bytesPerActivate::mean   231.942317                       # Bytes accessed per row activation (Byte)
system.mem_ctrls.dram.bytesPerActivate::gmean   160.990852                       # Bytes accessed per row activation (Byte)
system.mem_ctrls.dram.bytesPerActivate::stdev   222.190341                       # Bytes accessed per row activation (Byte)
system.mem_ctrls.dram.bytesPerActivate::0-127        56498     33.15%     33.15% # Bytes accessed per row activation (Byte)
system.mem_ctrls.dram.bytesPerActivate::128-255        55736     32.70%     65.85% # Bytes accessed per row activation (Byte)
system.mem_ctrls.dram.bytesPerActivate::256-383        23951     14.05%     79.90% # Bytes accessed per row activation (Byte)
system.mem_ctrls.dram.bytesPerActivate::384-511        12754      7.48%     87.38% # Bytes accessed per row activation (Byte)
system.mem_ctrls.dram.bytesPerActivate::512-639         8589      5.04%     92.42% # Bytes accessed per row activation (Byte)
system.mem_ctrls.dram.bytesPerActivate::640-767         4922      2.89%     95.31% # Bytes accessed per row activation (Byte)
system.mem_ctrls.dram.bytesPerActivate::768-895         2241      1.31%     96.62% # Bytes accessed per row activation (Byte)
system.mem_ctrls.dram.bytesPerActivate::896-1023         1478      0.87%     97.49% # Bytes accessed per row activation (Byte)
system.mem_ctrls.dram.bytesPerActivate::1024-1151         4280      2.51%    100.00% # Bytes accessed per row activation (Byte)
system.mem_ctrls.dram.bytesPerActivate::total       170449                       # Bytes accessed per row activation (Byte)
system.mem_ctrls.dram.bytesRead              29479808                       # Total bytes read (Byte)
system.mem_ctrls.dram.bytesWritten           10058240                       # Total bytes written (Byte)
system.mem_ctrls.dram.avgRdBW              110.642367                       # Average DRAM read bandwidth in MiBytes/s ((Byte/Second))
system.mem_ctrls.dram.avgWrBW               37.750160                       # Average DRAM write bandwidth in MiBytes/s ((Byte/Second))
system.mem_ctrls.dram.peakBW                 12800.00                       # Theoretical peak bandwidth in MiByte/s ((Byte/Second))
system.mem_ctrls.dram.busUtil                    1.16                       # Data bus utilization in percentage (Ratio)
system.mem_ctrls.dram.busUtilRead                0.86                       # Data bus utilization in percentage for reads (Ratio)
system.mem_ctrls.dram.busUtilWrite               0.29                       # Data bus utilization in percentage for writes (Ratio)
system.mem_ctrls.dram.pageHitRate               72.41                       # Row buffer hit rate, read and write combined (Ratio)
system.mem_ctrls.dram.power_state.pwrStateResidencyTicks::UNDEFINED 266442312000                       # Cumulative time (in ticks) in various power states (Tick)
system.mem_ctrls.dram.rank0.actEnergy       734049120                       # Energy for activate commands per rank (pJ) (Joule)
system.mem_ctrls.dram.rank0.preEnergy       390133590                       # Energy for precharge commands per rank (pJ) (Joule)
system.mem_ctrls.dram.rank0.readEnergy     1900896480                       # Energy for read commands per rank (pJ) (Joule)
system.mem_ctrls.dram.rank0.writeEnergy     483418980                       # Energy for write commands per rank (pJ) (Joule)
system.mem_ctrls.dram.rank0.refreshEnergy 21032366160.000004                       # Energy for refresh commands per rank (pJ) (Joule)
system.mem_ctrls.dram.rank0.actBackEnergy  53405146800                       # Energy for active background per rank (pJ) (Joule)
system.mem_ctrls.dram.rank0.preBackEnergy  57341092800                       # Energy for precharge background per rank (pJ) (Joule)
system.mem_ctrls.dram.rank0.actPowerDownEnergy            0                       # Energy for active power-down per rank (pJ) (Joule)
system.mem_ctrls.dram.rank0.prePowerDownEnergy            0                       # Energy for precharge power-down per rank (pJ) (Joule)
system.mem_ctrls.dram.rank0.selfRefreshEnergy            0                       # Energy for self refresh per rank (pJ) (Joule)
system.mem_ctrls.dram.rank0.totalEnergy  135287103930                       # Total energy per rank (pJ) (Joule)
system.mem_ctrls.dram.rank0.averagePower   507.753828                       # Core power per rank (mW) (Watt)
system.mem_ctrls.dram.rank0.totalIdleTime            0                       # Total Idle time Per DRAM Rank (Tick)
system.mem_ctrls.dram.rank0.pwrStateTime::IDLE 148543772250                       # Time in different power states (Tick)
system.mem_ctrls.dram.rank0.pwrStateTime::REF   8896940000                       # Time in different power states (Tick)
system.mem_ctrls.dram.rank0.pwrStateTime::SREF            0                       # Time in different power states (Tick)
system.mem_ctrls.dram.rank0.pwrStateTime::PRE_PDN            0                       # Time in different power states (Tick)
system.mem_ctrls.dram.rank0.pwrStateTime::ACT 109001599750                       # Time in different power states (Tick)
system.mem_ctrls.dram.rank0.pwrStateTime::ACT_PDN            0                       # Time in different power states (Tick)
system.mem_ctrls.dram.rank1.actEnergy       483035280                       # Energy for activate commands per rank (pJ) (Joule)
system.mem_ctrls.dram.rank1.preEnergy       256720365                       # Energy for precharge commands per rank (pJ) (Joule)
system.mem_ctrls.dram.rank1.readEnergy     1387944600                       # Energy for read commands per rank (pJ) (Joule)
system.mem_ctrls.dram.rank1.writeEnergy     336956220                       # Energy for write commands per rank (pJ) (Joule)
system.mem_ctrls.dram.rank1.refreshEnergy 21032366160.000004                       # Energy for refresh commands per rank (pJ) (Joule)
system.mem_ctrls.dram.rank1.actBackEnergy  49839438270                       # Energy for active background per rank (pJ) (Joule)
system.mem_ctrls.dram.rank1.preBackEnergy  60343794720                       # Energy for precharge background per rank (pJ) (Joule)
system.mem_ctrls.dram.rank1.actPowerDownEnergy            0                       # Energy for active power-down per rank (pJ) (Joule)
system.mem_ctrls.dram.rank1.prePowerDownEnergy            0                       # Energy for precharge power-down per rank (pJ) (Joule)
system.mem_ctrls.dram.rank1.selfRefreshEnergy            0                       # Energy for self refresh per rank (pJ) (Joule)
system.mem_ctrls.dram.rank1.totalEnergy  133680255615                       # Total energy per rank (pJ) (Joule)
system.mem_ctrls.dram.rank1.averagePower   501.723073                       # Core power per rank (mW) (Watt)
system.mem_ctrls.dram.rank1.totalIdleTime            0                       # Total Idle time Per DRAM Rank (Tick)
system.mem_ctrls.dram.rank1.pwrStateTime::IDLE 156377465250                       # Time in different power states (Tick)
system.mem_ctrls.dram.rank1.pwrStateTime::REF   8896940000                       # Time in different power states (Tick)
system.mem_ctrls.dram.rank1.pwrStateTime::SREF            0                       # Time in different power states (Tick)
system.mem_ctrls.dram.rank1.pwrStateTime::PRE_PDN            0                       # Time in different power states (Tick)
system.mem_ctrls.dram.rank1.pwrStateTime::ACT 101167906750                       # Time in different power states (Tick)
system.mem_ctrls.dram.rank1.pwrStateTime::ACT_PDN            0                       # Time in different power states (Tick)
system.mem_ctrls.power_state.pwrStateResidencyTicks::UNDEFINED 266442312000                       # Cumulative time (in ticks) in various power states (Tick)
system.membus.transDist::ReadResp              402068                       # Transaction distribution (Count)
system.membus.transDist::WritebackDirty        154170                       # Transaction distribution (Count)
system.membus.transDist::WritebackClean          3591                       # Transaction distribution (Count)
system.membus.transDist::CleanEvict            309687                       # Transaction distribution (Count)
system.membus.transDist::ReadExReq              66148                       # Transaction distribution (Count)
system.membus.transDist::ReadExResp             66148                       # Transaction distribution (Count)
system.membus.transDist::ReadCleanReq            3848                       # Transaction distribution (Count)
system.membus.transDist::ReadSharedReq         398221                       # Transaction distribution (Count)
system.membus.pktCount_system.cpu.icache.mem_side_port::system.mem_ctrls.port        11286                       # Packet count per connected requestor and responder (Count)
system.membus.pktCount_system.cpu.dcache.mem_side_port::system.mem_ctrls.port      1392595                       # Packet count per connected requestor and responder (Count)
system.membus.pktCount::total                 1403881                       # Packet count per connected requestor and responder (Count)
system.membus.pktSize_system.cpu.icache.mem_side_port::system.mem_ctrls.port       476032                       # Cumulative packet size per connected requestor and responder (Byte)
system.membus.pktSize_system.cpu.dcache.mem_side_port::system.mem_ctrls.port     39586496                       # Cumulative packet size per connected requestor and responder (Byte)
system.membus.pktSize::total                 40062528                       # Cumulative packet size per connected requestor and responder (Byte)
system.membus.snoops                                0                       # Total snoops (Count)
system.membus.snoopTraffic                          0                       # Total snoop traffic (Byte)
system.membus.snoopFanout::samples             468217                       # Request fanout histogram (Count)
system.membus.snoopFanout::mean              0.000009                       # Request fanout histogram (Count)
system.membus.snoopFanout::stdev             0.002923                       # Request fanout histogram (Count)
system.membus.snoopFanout::underflows               0      0.00%      0.00% # Request fanout histogram (Count)
system.membus.snoopFanout::0                   468213    100.00%    100.00% # Request fanout histogram (Count)
system.membus.snoopFanout::1                        4      0.00%    100.00% # Request fanout histogram (Count)
system.membus.snoopFanout::2                        0      0.00%    100.00% # Request fanout histogram (Count)
system.membus.snoopFanout::3                        0      0.00%    100.00% # Request fanout histogram (Count)
system.membus.snoopFanout::4                        0      0.00%    100.00% # Request fanout histogram (Count)
system.membus.snoopFanout::overflows                0      0.00%    100.00% # Request fanout histogram (Count)
system.membus.snoopFanout::min_value                0                       # Request fanout histogram (Count)
system.membus.snoopFanout::max_value                1                       # Request fanout histogram (Count)
system.membus.snoopFanout::total               468217                       # Request fanout histogram (Count)
system.membus.power_state.pwrStateResidencyTicks::UNDEFINED 266442312000                       # Cumulative time (in ticks) in various power states (Tick)
system.membus.reqLayer0.occupancy          1566709000                       # Layer occupancy (ticks) (Tick)
system.membus.reqLayer0.utilization               0.0                       # Layer utilization (Ratio)
system.membus.respLayer1.occupancy           20540000                       # Layer occupancy (ticks) (Tick)
system.membus.respLayer1.utilization              0.0                       # Layer utilization (Ratio)
system.membus.respLayer2.occupancy         2469937500                       # Layer occupancy (ticks) (Tick)
system.membus.respLayer2.utilization              0.0                       # Layer utilization (Ratio)
system.membus.snoop_filter.totRequests         935665                       # Total number of requests made to the snoop filter. (Count)
system.membus.snoop_filter.hitSingleRequests       467449                       # Number of requests hitting in the snoop filter with a single holder of the requested data. (Count)
system.membus.snoop_filter.hitMultiRequests            3                       # Number of requests hitting in the snoop filter with multiple (>1) holders of the requested data. (Count)
system.membus.snoop_filter.totSnoops                0                       # Total number of snoops made to the snoop filter. (Count)
system.membus.snoop_filter.hitSingleSnoops            0                       # Number of snoops hitting in the snoop filter with a single holder of the requested data. (Count)
system.membus.snoop_filter.hitMultiSnoops            0                       # Number of snoops hitting in the snoop filter with multiple (>1) holders of the requested data. (Count)
system.voltage_domain.voltage                       1                       # Voltage in Volts (Volt)
system.workload.inst.arm                            0                       # number of arm instructions executed (Count)
system.workload.inst.quiesce                        0                       # number of quiesce instructions executed (Count)
system.cpu.idleCycles                        24940060                       # Total number of cycles that the object has spent stopped (Unspecified)
system.cpu.tickCycles                       241502252                       # Number of cycles that the object actually ticked (Unspecified)

---------- End Simulation Statistics   ----------
