
---------- Begin Simulation Statistics ----------
simSeconds                                   0.014283                       # Number of seconds simulated (Second)
simTicks                                  14282589678                       # Number of ticks simulated (Tick)
finalTick                                 14282589678                       # Number of ticks from beginning of simulation (restored from checkpoints and never reset) (Tick)
simFreq                                  1000000000000                       # The number of ticks per simulated second ((Tick/Second))
hostSeconds                                    396.83                       # Real time elapsed on the host (Second)
hostTickRate                                 35991273                       # The number of ticks simulated per host second (ticks/s) ((Tick/Second))
hostMemory                                     701868                       # Number of bytes of host memory used (Byte)
simInsts                                    179396371                       # Number of instructions simulated (Count)
simOps                                      179461544                       # Number of ops (including micro ops) simulated (Count)
hostInstRate                                   452068                       # Simulator instruction rate (inst/s) ((Count/Second))
hostOpRate                                     452232                       # Simulator op (including micro ops) rate (op/s) ((Count/Second))
system.clk_domain.clock                          1000                       # Clock period in ticks (Tick)
system.cpu0.numCycles                        37981886                       # Number of cpu cycles simulated (Cycle)
system.cpu0.numWorkItemsStarted                     0                       # Number of work items this cpu started (Count)
system.cpu0.numWorkItemsCompleted                   0                       # Number of work items this cpu completed (Count)
system.cpu0.instsAdded                       91298005                       # Number of instructions added to the IQ (excludes non-spec) (Count)
system.cpu0.nonSpecInstsAdded                  192378                       # Number of non-speculative instructions added to the IQ (Count)
system.cpu0.instsIssued                      90548056                       # Number of instructions issued (Count)
system.cpu0.squashedInstsIssued                 22549                       # Number of squashed instructions issued (Count)
system.cpu0.squashedInstsExamined             2597080                       # Number of squashed instructions iterated over during squash; mainly for profiling (Count)
system.cpu0.squashedOperandsExamined          1931706                       # Number of squashed operands that are examined and possibly removed from graph (Count)
system.cpu0.squashedNonSpecRemoved              14077                       # Number of squashed non-spec instructions that were removed (Count)
system.cpu0.numIssuedDist::samples           37842834                       # Number of insts issued each cycle (Count)
system.cpu0.numIssuedDist::mean              2.392740                       # Number of insts issued each cycle (Count)
system.cpu0.numIssuedDist::stdev             2.035341                       # Number of insts issued each cycle (Count)
system.cpu0.numIssuedDist::underflows               0      0.00%      0.00% # Number of insts issued each cycle (Count)
system.cpu0.numIssuedDist::0                  9009961     23.81%     23.81% # Number of insts issued each cycle (Count)
system.cpu0.numIssuedDist::1                  4971219     13.14%     36.95% # Number of insts issued each cycle (Count)
system.cpu0.numIssuedDist::2                  7581650     20.03%     56.98% # Number of insts issued each cycle (Count)
system.cpu0.numIssuedDist::3                  5408741     14.29%     71.27% # Number of insts issued each cycle (Count)
system.cpu0.numIssuedDist::4                  6053655     16.00%     87.27% # Number of insts issued each cycle (Count)
system.cpu0.numIssuedDist::5                  1613252      4.26%     91.53% # Number of insts issued each cycle (Count)
system.cpu0.numIssuedDist::6                  1553657      4.11%     95.64% # Number of insts issued each cycle (Count)
system.cpu0.numIssuedDist::7                   621100      1.64%     97.28% # Number of insts issued each cycle (Count)
system.cpu0.numIssuedDist::8                  1029599      2.72%    100.00% # Number of insts issued each cycle (Count)
system.cpu0.numIssuedDist::overflows                0      0.00%    100.00% # Number of insts issued each cycle (Count)
system.cpu0.numIssuedDist::min_value                0                       # Number of insts issued each cycle (Count)
system.cpu0.numIssuedDist::max_value                8                       # Number of insts issued each cycle (Count)
system.cpu0.numIssuedDist::total             37842834                       # Number of insts issued each cycle (Count)
system.cpu0.statFuBusy::No_OpClass                  0      0.00%      0.00% # attempts to use FU when none available (Count)
system.cpu0.statFuBusy::IntAlu                  16044      0.12%      0.12% # attempts to use FU when none available (Count)
system.cpu0.statFuBusy::IntMult                   937      0.01%      0.13% # attempts to use FU when none available (Count)
system.cpu0.statFuBusy::IntDiv                    413      0.00%      0.14% # attempts to use FU when none available (Count)
system.cpu0.statFuBusy::FloatAdd                  263      0.00%      0.14% # attempts to use FU when none available (Count)
system.cpu0.statFuBusy::FloatCmp                  203      0.00%      0.14% # attempts to use FU when none available (Count)
system.cpu0.statFuBusy::FloatCvt                   92      0.00%      0.14% # attempts to use FU when none available (Count)
system.cpu0.statFuBusy::FloatMult            10796878     83.83%     83.97% # attempts to use FU when none available (Count)
system.cpu0.statFuBusy::FloatMultAcc            10977      0.09%     84.05% # attempts to use FU when none available (Count)
system.cpu0.statFuBusy::FloatDiv              1126212      8.74%     92.79% # attempts to use FU when none available (Count)
system.cpu0.statFuBusy::FloatMisc              556798      4.32%     97.12% # attempts to use FU when none available (Count)
system.cpu0.statFuBusy::FloatSqrt                  29      0.00%     97.12% # attempts to use FU when none available (Count)
system.cpu0.statFuBusy::SimdAdd                     0      0.00%     97.12% # attempts to use FU when none available (Count)
system.cpu0.statFuBusy::SimdAddAcc                  0      0.00%     97.12% # attempts to use FU when none available (Count)
system.cpu0.statFuBusy::SimdAlu                     0      0.00%     97.12% # attempts to use FU when none available (Count)
system.cpu0.statFuBusy::SimdCmp                     0      0.00%     97.12% # attempts to use FU when none available (Count)
system.cpu0.statFuBusy::SimdCvt                     0      0.00%     97.12% # attempts to use FU when none available (Count)
system.cpu0.statFuBusy::SimdMisc                    0      0.00%     97.12% # attempts to use FU when none available (Count)
system.cpu0.statFuBusy::SimdMult                    0      0.00%     97.12% # attempts to use FU when none available (Count)
system.cpu0.statFuBusy::SimdMultAcc                 0      0.00%     97.12% # attempts to use FU when none available (Count)
system.cpu0.statFuBusy::SimdShift                   0      0.00%     97.12% # attempts to use FU when none available (Count)
system.cpu0.statFuBusy::SimdShiftAcc                0      0.00%     97.12% # attempts to use FU when none available (Count)
system.cpu0.statFuBusy::SimdDiv                     0      0.00%     97.12% # attempts to use FU when none available (Count)
system.cpu0.statFuBusy::SimdSqrt                    0      0.00%     97.12% # attempts to use FU when none available (Count)
system.cpu0.statFuBusy::SimdFloatAdd                0      0.00%     97.12% # attempts to use FU when none available (Count)
system.cpu0.statFuBusy::SimdFloatAlu                0      0.00%     97.12% # attempts to use FU when none available (Count)
system.cpu0.statFuBusy::SimdFloatCmp                0      0.00%     97.12% # attempts to use FU when none available (Count)
system.cpu0.statFuBusy::SimdFloatCvt                0      0.00%     97.12% # attempts to use FU when none available (Count)
system.cpu0.statFuBusy::SimdFloatDiv                0      0.00%     97.12% # attempts to use FU when none available (Count)
system.cpu0.statFuBusy::SimdFloatMisc               0      0.00%     97.12% # attempts to use FU when none available (Count)
system.cpu0.statFuBusy::SimdFloatMult               0      0.00%     97.12% # attempts to use FU when none available (Count)
system.cpu0.statFuBusy::SimdFloatMultAcc            0      0.00%     97.12% # attempts to use FU when none available (Count)
system.cpu0.statFuBusy::SimdFloatSqrt               0      0.00%     97.12% # attempts to use FU when none available (Count)
system.cpu0.statFuBusy::SimdReduceAdd               0      0.00%     97.12% # attempts to use FU when none available (Count)
system.cpu0.statFuBusy::SimdReduceAlu               0      0.00%     97.12% # attempts to use FU when none available (Count)
system.cpu0.statFuBusy::SimdReduceCmp               0      0.00%     97.12% # attempts to use FU when none available (Count)
system.cpu0.statFuBusy::SimdFloatReduceAdd            0      0.00%     97.12% # attempts to use FU when none available (Count)
system.cpu0.statFuBusy::SimdFloatReduceCmp            0      0.00%     97.12% # attempts to use FU when none available (Count)
system.cpu0.statFuBusy::SimdAes                     0      0.00%     97.12% # attempts to use FU when none available (Count)
system.cpu0.statFuBusy::SimdAesMix                  0      0.00%     97.12% # attempts to use FU when none available (Count)
system.cpu0.statFuBusy::SimdSha1Hash                0      0.00%     97.12% # attempts to use FU when none available (Count)
system.cpu0.statFuBusy::SimdSha1Hash2               0      0.00%     97.12% # attempts to use FU when none available (Count)
system.cpu0.statFuBusy::SimdSha256Hash              0      0.00%     97.12% # attempts to use FU when none available (Count)
system.cpu0.statFuBusy::SimdSha256Hash2             0      0.00%     97.12% # attempts to use FU when none available (Count)
system.cpu0.statFuBusy::SimdShaSigma2               0      0.00%     97.12% # attempts to use FU when none available (Count)
system.cpu0.statFuBusy::SimdShaSigma3               0      0.00%     97.12% # attempts to use FU when none available (Count)
system.cpu0.statFuBusy::SimdPredAlu                 0      0.00%     97.12% # attempts to use FU when none available (Count)
system.cpu0.statFuBusy::MemRead                135159      1.05%     98.17% # attempts to use FU when none available (Count)
system.cpu0.statFuBusy::MemWrite                76866      0.60%     98.76% # attempts to use FU when none available (Count)
system.cpu0.statFuBusy::FloatMemRead           127447      0.99%     99.75% # attempts to use FU when none available (Count)
system.cpu0.statFuBusy::FloatMemWrite           31726      0.25%    100.00% # attempts to use FU when none available (Count)
system.cpu0.statFuBusy::IprAccess                   0      0.00%    100.00% # attempts to use FU when none available (Count)
system.cpu0.statFuBusy::InstPrefetch                0      0.00%    100.00% # attempts to use FU when none available (Count)
system.cpu0.statIssuedInstType_0::No_OpClass       110101      0.12%      0.12% # Number of instructions issued per FU type, per thread (Count)
system.cpu0.statIssuedInstType_0::IntAlu     24757138     27.34%     27.46% # Number of instructions issued per FU type, per thread (Count)
system.cpu0.statIssuedInstType_0::IntMult        12460      0.01%     27.48% # Number of instructions issued per FU type, per thread (Count)
system.cpu0.statIssuedInstType_0::IntDiv         1762      0.00%     27.48% # Number of instructions issued per FU type, per thread (Count)
system.cpu0.statIssuedInstType_0::FloatAdd     21258979     23.48%     50.96% # Number of instructions issued per FU type, per thread (Count)
system.cpu0.statIssuedInstType_0::FloatCmp       241528      0.27%     51.22% # Number of instructions issued per FU type, per thread (Count)
system.cpu0.statIssuedInstType_0::FloatCvt       504079      0.56%     51.78% # Number of instructions issued per FU type, per thread (Count)
system.cpu0.statIssuedInstType_0::FloatMult     23616215     26.08%     77.86% # Number of instructions issued per FU type, per thread (Count)
system.cpu0.statIssuedInstType_0::FloatMultAcc        83118      0.09%     77.95% # Number of instructions issued per FU type, per thread (Count)
system.cpu0.statIssuedInstType_0::FloatDiv       723692      0.80%     78.75% # Number of instructions issued per FU type, per thread (Count)
system.cpu0.statIssuedInstType_0::FloatMisc       465231      0.51%     79.27% # Number of instructions issued per FU type, per thread (Count)
system.cpu0.statIssuedInstType_0::FloatSqrt         5895      0.01%     79.27% # Number of instructions issued per FU type, per thread (Count)
system.cpu0.statIssuedInstType_0::SimdAdd            0      0.00%     79.27% # Number of instructions issued per FU type, per thread (Count)
system.cpu0.statIssuedInstType_0::SimdAddAcc            0      0.00%     79.27% # Number of instructions issued per FU type, per thread (Count)
system.cpu0.statIssuedInstType_0::SimdAlu            0      0.00%     79.27% # Number of instructions issued per FU type, per thread (Count)
system.cpu0.statIssuedInstType_0::SimdCmp            0      0.00%     79.27% # Number of instructions issued per FU type, per thread (Count)
system.cpu0.statIssuedInstType_0::SimdCvt            0      0.00%     79.27% # Number of instructions issued per FU type, per thread (Count)
system.cpu0.statIssuedInstType_0::SimdMisc            0      0.00%     79.27% # Number of instructions issued per FU type, per thread (Count)
system.cpu0.statIssuedInstType_0::SimdMult            0      0.00%     79.27% # Number of instructions issued per FU type, per thread (Count)
system.cpu0.statIssuedInstType_0::SimdMultAcc            0      0.00%     79.27% # Number of instructions issued per FU type, per thread (Count)
system.cpu0.statIssuedInstType_0::SimdShift            0      0.00%     79.27% # Number of instructions issued per FU type, per thread (Count)
system.cpu0.statIssuedInstType_0::SimdShiftAcc            0      0.00%     79.27% # Number of instructions issued per FU type, per thread (Count)
system.cpu0.statIssuedInstType_0::SimdDiv            0      0.00%     79.27% # Number of instructions issued per FU type, per thread (Count)
system.cpu0.statIssuedInstType_0::SimdSqrt            0      0.00%     79.27% # Number of instructions issued per FU type, per thread (Count)
system.cpu0.statIssuedInstType_0::SimdFloatAdd            0      0.00%     79.27% # Number of instructions issued per FU type, per thread (Count)
system.cpu0.statIssuedInstType_0::SimdFloatAlu            0      0.00%     79.27% # Number of instructions issued per FU type, per thread (Count)
system.cpu0.statIssuedInstType_0::SimdFloatCmp            0      0.00%     79.27% # Number of instructions issued per FU type, per thread (Count)
system.cpu0.statIssuedInstType_0::SimdFloatCvt            0      0.00%     79.27% # Number of instructions issued per FU type, per thread (Count)
system.cpu0.statIssuedInstType_0::SimdFloatDiv            0      0.00%     79.27% # Number of instructions issued per FU type, per thread (Count)
system.cpu0.statIssuedInstType_0::SimdFloatMisc            0      0.00%     79.27% # Number of instructions issued per FU type, per thread (Count)
system.cpu0.statIssuedInstType_0::SimdFloatMult            0      0.00%     79.27% # Number of instructions issued per FU type, per thread (Count)
system.cpu0.statIssuedInstType_0::SimdFloatMultAcc            0      0.00%     79.27% # Number of instructions issued per FU type, per thread (Count)
system.cpu0.statIssuedInstType_0::SimdFloatSqrt            0      0.00%     79.27% # Number of instructions issued per FU type, per thread (Count)
system.cpu0.statIssuedInstType_0::SimdReduceAdd            0      0.00%     79.27% # Number of instructions issued per FU type, per thread (Count)
system.cpu0.statIssuedInstType_0::SimdReduceAlu            0      0.00%     79.27% # Number of instructions issued per FU type, per thread (Count)
system.cpu0.statIssuedInstType_0::SimdReduceCmp            0      0.00%     79.27% # Number of instructions issued per FU type, per thread (Count)
system.cpu0.statIssuedInstType_0::SimdFloatReduceAdd            0      0.00%     79.27% # Number of instructions issued per FU type, per thread (Count)
system.cpu0.statIssuedInstType_0::SimdFloatReduceCmp            0      0.00%     79.27% # Number of instructions issued per FU type, per thread (Count)
system.cpu0.statIssuedInstType_0::SimdAes            0      0.00%     79.27% # Number of instructions issued per FU type, per thread (Count)
system.cpu0.statIssuedInstType_0::SimdAesMix            0      0.00%     79.27% # Number of instructions issued per FU type, per thread (Count)
system.cpu0.statIssuedInstType_0::SimdSha1Hash            0      0.00%     79.27% # Number of instructions issued per FU type, per thread (Count)
system.cpu0.statIssuedInstType_0::SimdSha1Hash2            0      0.00%     79.27% # Number of instructions issued per FU type, per thread (Count)
system.cpu0.statIssuedInstType_0::SimdSha256Hash            0      0.00%     79.27% # Number of instructions issued per FU type, per thread (Count)
system.cpu0.statIssuedInstType_0::SimdSha256Hash2            0      0.00%     79.27% # Number of instructions issued per FU type, per thread (Count)
system.cpu0.statIssuedInstType_0::SimdShaSigma2            0      0.00%     79.27% # Number of instructions issued per FU type, per thread (Count)
system.cpu0.statIssuedInstType_0::SimdShaSigma3            0      0.00%     79.27% # Number of instructions issued per FU type, per thread (Count)
system.cpu0.statIssuedInstType_0::SimdPredAlu            0      0.00%     79.27% # Number of instructions issued per FU type, per thread (Count)
system.cpu0.statIssuedInstType_0::MemRead      2331617      2.58%     81.85% # Number of instructions issued per FU type, per thread (Count)
system.cpu0.statIssuedInstType_0::MemWrite       742215      0.82%     82.67% # Number of instructions issued per FU type, per thread (Count)
system.cpu0.statIssuedInstType_0::FloatMemRead     13215088     14.59%     97.26% # Number of instructions issued per FU type, per thread (Count)
system.cpu0.statIssuedInstType_0::FloatMemWrite      2478938      2.74%    100.00% # Number of instructions issued per FU type, per thread (Count)
system.cpu0.statIssuedInstType_0::IprAccess            0      0.00%    100.00% # Number of instructions issued per FU type, per thread (Count)
system.cpu0.statIssuedInstType_0::InstPrefetch            0      0.00%    100.00% # Number of instructions issued per FU type, per thread (Count)
system.cpu0.statIssuedInstType_0::total      90548056                       # Number of instructions issued per FU type, per thread (Count)
system.cpu0.issueRate                        2.383980                       # Inst issue rate ((Count/Cycle))
system.cpu0.fuBusy                           12880044                       # FU busy when requested (Count)
system.cpu0.fuBusyRate                       0.142245                       # FU busy rate (busy events/executed inst) ((Count/Count))
system.cpu0.intInstQueueReads                94001615                       # Number of integer instruction queue reads (Count)
system.cpu0.intInstQueueWrites               29865102                       # Number of integer instruction queue writes (Count)
system.cpu0.intInstQueueWakeupAccesses       27704328                       # Number of integer instruction queue wakeup accesses (Count)
system.cpu0.fpInstQueueReads                137839924                       # Number of floating instruction queue reads (Count)
system.cpu0.fpInstQueueWrites                64231234                       # Number of floating instruction queue writes (Count)
system.cpu0.fpInstQueueWakeupAccesses        62352865                       # Number of floating instruction queue wakeup accesses (Count)
system.cpu0.vecInstQueueReads                       0                       # Number of vector instruction queue reads (Count)
system.cpu0.vecInstQueueWrites                      0                       # Number of vector instruction queue writes (Count)
system.cpu0.vecInstQueueWakeupAccesses              0                       # Number of vector instruction queue wakeup accesses (Count)
system.cpu0.intAluAccesses                   28074611                       # Number of integer alu accesses (Count)
system.cpu0.fpAluAccesses                    75243388                       # Number of floating point alu accesses (Count)
system.cpu0.vecAluAccesses                          0                       # Number of vector alu accesses (Count)
system.cpu0.numInsts                         90301516                       # Number of executed instructions (Count)
system.cpu0.numLoadInsts                     15413059                       # Number of load instructions executed (Count)
system.cpu0.numSquashedInsts                   246540                       # Number of squashed instructions skipped in execute (Count)
system.cpu0.numSwp                                  0                       # Number of swp insts executed (Count)
system.cpu0.numNop                                  0                       # Number of nop insts executed (Count)
system.cpu0.numRefs                          18654501                       # Number of memory reference insts executed (Count)
system.cpu0.numBranches                       8651073                       # Number of branches executed (Count)
system.cpu0.numStoreInsts                     3241442                       # Number of stores executed (Count)
system.cpu0.numRate                          2.377489                       # Inst execution rate ((Count/Cycle))
system.cpu0.timesIdled                           1952                       # Number of times that the entire CPU went into an idle state and unscheduled itself (Count)
system.cpu0.idleCycles                         139052                       # Total number of cycles that the CPU has spent unscheduled due to idling (Cycle)
system.cpu0.quiesceCycles                     2025369                       # Total number of cycles that CPU has spent quiesced or waiting for an interrupt (Cycle)
system.cpu0.committedInsts                   88859589                       # Number of Instructions Simulated (Count)
system.cpu0.committedOps                     88893302                       # Number of Ops (including micro ops) Simulated (Count)
system.cpu0.cpi                              0.427437                       # CPI: Cycles Per Instruction ((Cycle/Count))
system.cpu0.totalCpi                         0.427437                       # CPI: Total CPI of All Threads ((Cycle/Count))
system.cpu0.ipc                              2.339525                       # IPC: Instructions Per Cycle ((Count/Cycle))
system.cpu0.totalIpc                         2.339525                       # IPC: Total IPC of All Threads ((Count/Cycle))
system.cpu0.intRegfileReads                  48598350                       # Number of integer regfile reads (Count)
system.cpu0.intRegfileWrites                 18810239                       # Number of integer regfile writes (Count)
system.cpu0.fpRegfileReads                   95371004                       # Number of floating regfile reads (Count)
system.cpu0.fpRegfileWrites                  59596094                       # Number of floating regfile writes (Count)
system.cpu0.miscRegfileReads                155062932                       # number of misc regfile reads (Count)
system.cpu0.miscRegfileWrites                46759384                       # number of misc regfile writes (Count)
system.cpu0.MemDepUnit__0.insertedLoads      15602160                       # Number of loads inserted to the mem dependence unit. (Count)
system.cpu0.MemDepUnit__0.insertedStores      3340445                       # Number of stores inserted to the mem dependence unit. (Count)
system.cpu0.MemDepUnit__0.conflictingLoads      1197955                       # Number of conflicting loads. (Count)
system.cpu0.MemDepUnit__0.conflictingStores       529615                       # Number of conflicting stores. (Count)
system.cpu0.MemDepUnit__1.insertedLoads             0                       # Number of loads inserted to the mem dependence unit. (Count)
system.cpu0.MemDepUnit__1.insertedStores            0                       # Number of stores inserted to the mem dependence unit. (Count)
system.cpu0.MemDepUnit__1.conflictingLoads            0                       # Number of conflicting loads. (Count)
system.cpu0.MemDepUnit__1.conflictingStores            0                       # Number of conflicting stores. (Count)
system.cpu0.MemDepUnit__2.insertedLoads             0                       # Number of loads inserted to the mem dependence unit. (Count)
system.cpu0.MemDepUnit__2.insertedStores            0                       # Number of stores inserted to the mem dependence unit. (Count)
system.cpu0.MemDepUnit__2.conflictingLoads            0                       # Number of conflicting loads. (Count)
system.cpu0.MemDepUnit__2.conflictingStores            0                       # Number of conflicting stores. (Count)
system.cpu0.MemDepUnit__3.insertedLoads             0                       # Number of loads inserted to the mem dependence unit. (Count)
system.cpu0.MemDepUnit__3.insertedStores            0                       # Number of stores inserted to the mem dependence unit. (Count)
system.cpu0.MemDepUnit__3.conflictingLoads            0                       # Number of conflicting loads. (Count)
system.cpu0.MemDepUnit__3.conflictingStores            0                       # Number of conflicting stores. (Count)
system.cpu0.branchPred.lookups                9365376                       # Number of BP lookups (Count)
system.cpu0.branchPred.condPredicted          8684782                       # Number of conditional branches predicted (Count)
system.cpu0.branchPred.condIncorrect           187793                       # Number of conditional branches incorrect (Count)
system.cpu0.branchPred.BTBLookups             5967338                       # Number of BTB lookups (Count)
system.cpu0.branchPred.BTBHits                5955697                       # Number of BTB hits (Count)
system.cpu0.branchPred.BTBHitRatio           0.998049                       # BTB Hit Ratio (Ratio)
system.cpu0.branchPred.RASUsed                 247386                       # Number of times the RAS was used to get a target. (Count)
system.cpu0.branchPred.RASIncorrect                12                       # Number of incorrect RAS predictions. (Count)
system.cpu0.branchPred.indirectLookups          21948                       # Number of indirect predictor lookups. (Count)
system.cpu0.branchPred.indirectHits             19215                       # Number of indirect target hits. (Count)
system.cpu0.branchPred.indirectMisses            2733                       # Number of indirect misses. (Count)
system.cpu0.branchPred.indirectMispredicted         1267                       # Number of mispredicted indirect branches. (Count)
system.cpu0.commit.commitSquashedInsts        2596198                       # The number of squashed insts skipped by commit (Count)
system.cpu0.commit.commitNonSpecStalls         178301                       # The number of times commit has been forced to stall to communicate backwards (Count)
system.cpu0.commit.branchMispredicts           176733                       # The number of times a branch was mispredicted (Count)
system.cpu0.commit.numCommittedDist::samples     37407574                       # Number of insts commited each cycle (Count)
system.cpu0.commit.numCommittedDist::mean     2.376345                       # Number of insts commited each cycle (Count)
system.cpu0.commit.numCommittedDist::stdev     2.893140                       # Number of insts commited each cycle (Count)
system.cpu0.commit.numCommittedDist::underflows            0      0.00%      0.00% # Number of insts commited each cycle (Count)
system.cpu0.commit.numCommittedDist::0       14037091     37.52%     37.52% # Number of insts commited each cycle (Count)
system.cpu0.commit.numCommittedDist::1        7048263     18.84%     56.37% # Number of insts commited each cycle (Count)
system.cpu0.commit.numCommittedDist::2        4516869     12.07%     68.44% # Number of insts commited each cycle (Count)
system.cpu0.commit.numCommittedDist::3        1930839      5.16%     73.60% # Number of insts commited each cycle (Count)
system.cpu0.commit.numCommittedDist::4        2018159      5.40%     79.00% # Number of insts commited each cycle (Count)
system.cpu0.commit.numCommittedDist::5         590197      1.58%     80.58% # Number of insts commited each cycle (Count)
system.cpu0.commit.numCommittedDist::6         895383      2.39%     82.97% # Number of insts commited each cycle (Count)
system.cpu0.commit.numCommittedDist::7         343319      0.92%     83.89% # Number of insts commited each cycle (Count)
system.cpu0.commit.numCommittedDist::8        6027454     16.11%    100.00% # Number of insts commited each cycle (Count)
system.cpu0.commit.numCommittedDist::overflows            0      0.00%    100.00% # Number of insts commited each cycle (Count)
system.cpu0.commit.numCommittedDist::min_value            0                       # Number of insts commited each cycle (Count)
system.cpu0.commit.numCommittedDist::max_value            8                       # Number of insts commited each cycle (Count)
system.cpu0.commit.numCommittedDist::total     37407574                       # Number of insts commited each cycle (Count)
system.cpu0.commit.instsCommitted            88859589                       # Number of instructions committed (Count)
system.cpu0.commit.opsCommitted              88893302                       # Number of ops (including micro ops) committed (Count)
system.cpu0.commit.memRefs                   18092680                       # Number of memory references committed (Count)
system.cpu0.commit.loads                     14948523                       # Number of loads committed (Count)
system.cpu0.commit.amos                         35948                       # Number of atomic instructions committed (Count)
system.cpu0.commit.membars                      66131                       # Number of memory barriers committed (Count)
system.cpu0.commit.branches                   8430509                       # Number of branches committed (Count)
system.cpu0.commit.vectorInstructions               0                       # Number of committed Vector instructions. (Count)
system.cpu0.commit.floating                  62103508                       # Number of committed floating point instructions. (Count)
system.cpu0.commit.integer                   42627702                       # Number of committed integer instructions. (Count)
system.cpu0.commit.functionCalls               182054                       # Number of function calls committed. (Count)
system.cpu0.commit.committedInstType_0::No_OpClass       107694      0.12%      0.12% # Class of committed instruction (Count)
system.cpu0.commit.committedInstType_0::IntAlu     23922655     26.91%     27.03% # Class of committed instruction (Count)
system.cpu0.commit.committedInstType_0::IntMult         9708      0.01%     27.04% # Class of committed instruction (Count)
system.cpu0.commit.committedInstType_0::IntDiv         1181      0.00%     27.05% # Class of committed instruction (Count)
system.cpu0.commit.committedInstType_0::FloatAdd     21233681     23.89%     50.93% # Class of committed instruction (Count)
system.cpu0.commit.committedInstType_0::FloatCmp       207716      0.23%     51.17% # Class of committed instruction (Count)
system.cpu0.commit.committedInstType_0::FloatCvt       478860      0.54%     51.70% # Class of committed instruction (Count)
system.cpu0.commit.committedInstType_0::FloatMult     23590711     26.54%     78.24% # Class of committed instruction (Count)
system.cpu0.commit.committedInstType_0::FloatMultAcc        74672      0.08%     78.33% # Class of committed instruction (Count)
system.cpu0.commit.committedInstType_0::FloatDiv       723219      0.81%     79.14% # Class of committed instruction (Count)
system.cpu0.commit.committedInstType_0::FloatMisc       444916      0.50%     79.64% # Class of committed instruction (Count)
system.cpu0.commit.committedInstType_0::FloatSqrt         5609      0.01%     79.65% # Class of committed instruction (Count)
system.cpu0.commit.committedInstType_0::SimdAdd            0      0.00%     79.65% # Class of committed instruction (Count)
system.cpu0.commit.committedInstType_0::SimdAddAcc            0      0.00%     79.65% # Class of committed instruction (Count)
system.cpu0.commit.committedInstType_0::SimdAlu            0      0.00%     79.65% # Class of committed instruction (Count)
system.cpu0.commit.committedInstType_0::SimdCmp            0      0.00%     79.65% # Class of committed instruction (Count)
system.cpu0.commit.committedInstType_0::SimdCvt            0      0.00%     79.65% # Class of committed instruction (Count)
system.cpu0.commit.committedInstType_0::SimdMisc            0      0.00%     79.65% # Class of committed instruction (Count)
system.cpu0.commit.committedInstType_0::SimdMult            0      0.00%     79.65% # Class of committed instruction (Count)
system.cpu0.commit.committedInstType_0::SimdMultAcc            0      0.00%     79.65% # Class of committed instruction (Count)
system.cpu0.commit.committedInstType_0::SimdShift            0      0.00%     79.65% # Class of committed instruction (Count)
system.cpu0.commit.committedInstType_0::SimdShiftAcc            0      0.00%     79.65% # Class of committed instruction (Count)
system.cpu0.commit.committedInstType_0::SimdDiv            0      0.00%     79.65% # Class of committed instruction (Count)
system.cpu0.commit.committedInstType_0::SimdSqrt            0      0.00%     79.65% # Class of committed instruction (Count)
system.cpu0.commit.committedInstType_0::SimdFloatAdd            0      0.00%     79.65% # Class of committed instruction (Count)
system.cpu0.commit.committedInstType_0::SimdFloatAlu            0      0.00%     79.65% # Class of committed instruction (Count)
system.cpu0.commit.committedInstType_0::SimdFloatCmp            0      0.00%     79.65% # Class of committed instruction (Count)
system.cpu0.commit.committedInstType_0::SimdFloatCvt            0      0.00%     79.65% # Class of committed instruction (Count)
system.cpu0.commit.committedInstType_0::SimdFloatDiv            0      0.00%     79.65% # Class of committed instruction (Count)
system.cpu0.commit.committedInstType_0::SimdFloatMisc            0      0.00%     79.65% # Class of committed instruction (Count)
system.cpu0.commit.committedInstType_0::SimdFloatMult            0      0.00%     79.65% # Class of committed instruction (Count)
system.cpu0.commit.committedInstType_0::SimdFloatMultAcc            0      0.00%     79.65% # Class of committed instruction (Count)
system.cpu0.commit.committedInstType_0::SimdFloatSqrt            0      0.00%     79.65% # Class of committed instruction (Count)
system.cpu0.commit.committedInstType_0::SimdReduceAdd            0      0.00%     79.65% # Class of committed instruction (Count)
system.cpu0.commit.committedInstType_0::SimdReduceAlu            0      0.00%     79.65% # Class of committed instruction (Count)
system.cpu0.commit.committedInstType_0::SimdReduceCmp            0      0.00%     79.65% # Class of committed instruction (Count)
system.cpu0.commit.committedInstType_0::SimdFloatReduceAdd            0      0.00%     79.65% # Class of committed instruction (Count)
system.cpu0.commit.committedInstType_0::SimdFloatReduceCmp            0      0.00%     79.65% # Class of committed instruction (Count)
system.cpu0.commit.committedInstType_0::SimdAes            0      0.00%     79.65% # Class of committed instruction (Count)
system.cpu0.commit.committedInstType_0::SimdAesMix            0      0.00%     79.65% # Class of committed instruction (Count)
system.cpu0.commit.committedInstType_0::SimdSha1Hash            0      0.00%     79.65% # Class of committed instruction (Count)
system.cpu0.commit.committedInstType_0::SimdSha1Hash2            0      0.00%     79.65% # Class of committed instruction (Count)
system.cpu0.commit.committedInstType_0::SimdSha256Hash            0      0.00%     79.65% # Class of committed instruction (Count)
system.cpu0.commit.committedInstType_0::SimdSha256Hash2            0      0.00%     79.65% # Class of committed instruction (Count)
system.cpu0.commit.committedInstType_0::SimdShaSigma2            0      0.00%     79.65% # Class of committed instruction (Count)
system.cpu0.commit.committedInstType_0::SimdShaSigma3            0      0.00%     79.65% # Class of committed instruction (Count)
system.cpu0.commit.committedInstType_0::SimdPredAlu            0      0.00%     79.65% # Class of committed instruction (Count)
system.cpu0.commit.committedInstType_0::MemRead      2088152      2.35%     82.00% # Class of committed instruction (Count)
system.cpu0.commit.committedInstType_0::MemWrite       660404      0.74%     82.74% # Class of committed instruction (Count)
system.cpu0.commit.committedInstType_0::FloatMemRead     12896319     14.51%     97.25% # Class of committed instruction (Count)
system.cpu0.commit.committedInstType_0::FloatMemWrite      2447805      2.75%    100.00% # Class of committed instruction (Count)
system.cpu0.commit.committedInstType_0::IprAccess            0      0.00%    100.00% # Class of committed instruction (Count)
system.cpu0.commit.committedInstType_0::InstPrefetch            0      0.00%    100.00% # Class of committed instruction (Count)
system.cpu0.commit.committedInstType_0::total     88893302                       # Class of committed instruction (Count)
system.cpu0.commit.commitEligibleSamples      6027454                       # number cycles where commit BW limit reached (Cycle)
system.cpu0.dcache.demandHits::cpu0.data     17815203                       # number of demand (read+write) hits (Count)
system.cpu0.dcache.demandHits::total         17815203                       # number of demand (read+write) hits (Count)
system.cpu0.dcache.overallHits::cpu0.data     17815203                       # number of overall hits (Count)
system.cpu0.dcache.overallHits::total        17815203                       # number of overall hits (Count)
system.cpu0.dcache.demandMisses::cpu0.data       452265                       # number of demand (read+write) misses (Count)
system.cpu0.dcache.demandMisses::total         452265                       # number of demand (read+write) misses (Count)
system.cpu0.dcache.overallMisses::cpu0.data       452265                       # number of overall misses (Count)
system.cpu0.dcache.overallMisses::total        452265                       # number of overall misses (Count)
system.cpu0.dcache.demandMissLatency::cpu0.data   9183592219                       # number of demand (read+write) miss ticks (Tick)
system.cpu0.dcache.demandMissLatency::total   9183592219                       # number of demand (read+write) miss ticks (Tick)
system.cpu0.dcache.overallMissLatency::cpu0.data   9183592219                       # number of overall miss ticks (Tick)
system.cpu0.dcache.overallMissLatency::total   9183592219                       # number of overall miss ticks (Tick)
system.cpu0.dcache.demandAccesses::cpu0.data     18267468                       # number of demand (read+write) accesses (Count)
system.cpu0.dcache.demandAccesses::total     18267468                       # number of demand (read+write) accesses (Count)
system.cpu0.dcache.overallAccesses::cpu0.data     18267468                       # number of overall (read+write) accesses (Count)
system.cpu0.dcache.overallAccesses::total     18267468                       # number of overall (read+write) accesses (Count)
system.cpu0.dcache.demandMissRate::cpu0.data     0.024758                       # miss rate for demand accesses (Ratio)
system.cpu0.dcache.demandMissRate::total     0.024758                       # miss rate for demand accesses (Ratio)
system.cpu0.dcache.overallMissRate::cpu0.data     0.024758                       # miss rate for overall accesses (Ratio)
system.cpu0.dcache.overallMissRate::total     0.024758                       # miss rate for overall accesses (Ratio)
system.cpu0.dcache.demandAvgMissLatency::cpu0.data 20305.776965                       # average overall miss latency in ticks ((Tick/Count))
system.cpu0.dcache.demandAvgMissLatency::total 20305.776965                       # average overall miss latency in ticks ((Tick/Count))
system.cpu0.dcache.overallAvgMissLatency::cpu0.data 20305.776965                       # average overall miss latency ((Tick/Count))
system.cpu0.dcache.overallAvgMissLatency::total 20305.776965                       # average overall miss latency ((Tick/Count))
system.cpu0.dcache.blockedCycles::no_mshrs       480957                       # number of cycles access was blocked (Cycle)
system.cpu0.dcache.blockedCycles::no_targets          169                       # number of cycles access was blocked (Cycle)
system.cpu0.dcache.blockedCauses::no_mshrs        21492                       # number of times access was blocked (Count)
system.cpu0.dcache.blockedCauses::no_targets            1                       # number of times access was blocked (Count)
system.cpu0.dcache.avgBlocked::no_mshrs     22.378420                       # average number of cycles each access was blocked ((Cycle/Count))
system.cpu0.dcache.avgBlocked::no_targets          169                       # average number of cycles each access was blocked ((Cycle/Count))
system.cpu0.dcache.writebacks::writebacks       104616                       # number of writebacks (Count)
system.cpu0.dcache.writebacks::total           104616                       # number of writebacks (Count)
system.cpu0.dcache.demandMshrHits::cpu0.data       294961                       # number of demand (read+write) MSHR hits (Count)
system.cpu0.dcache.demandMshrHits::total       294961                       # number of demand (read+write) MSHR hits (Count)
system.cpu0.dcache.overallMshrHits::cpu0.data       294961                       # number of overall MSHR hits (Count)
system.cpu0.dcache.overallMshrHits::total       294961                       # number of overall MSHR hits (Count)
system.cpu0.dcache.demandMshrMisses::cpu0.data       157304                       # number of demand (read+write) MSHR misses (Count)
system.cpu0.dcache.demandMshrMisses::total       157304                       # number of demand (read+write) MSHR misses (Count)
system.cpu0.dcache.overallMshrMisses::cpu0.data       157304                       # number of overall MSHR misses (Count)
system.cpu0.dcache.overallMshrMisses::total       157304                       # number of overall MSHR misses (Count)
system.cpu0.dcache.demandMshrMissLatency::cpu0.data   2745308437                       # number of demand (read+write) MSHR miss ticks (Tick)
system.cpu0.dcache.demandMshrMissLatency::total   2745308437                       # number of demand (read+write) MSHR miss ticks (Tick)
system.cpu0.dcache.overallMshrMissLatency::cpu0.data   2745308437                       # number of overall MSHR miss ticks (Tick)
system.cpu0.dcache.overallMshrMissLatency::total   2745308437                       # number of overall MSHR miss ticks (Tick)
system.cpu0.dcache.demandMshrMissRate::cpu0.data     0.008611                       # mshr miss ratio for demand accesses (Ratio)
system.cpu0.dcache.demandMshrMissRate::total     0.008611                       # mshr miss ratio for demand accesses (Ratio)
system.cpu0.dcache.overallMshrMissRate::cpu0.data     0.008611                       # mshr miss ratio for overall accesses (Ratio)
system.cpu0.dcache.overallMshrMissRate::total     0.008611                       # mshr miss ratio for overall accesses (Ratio)
system.cpu0.dcache.demandAvgMshrMissLatency::cpu0.data 17452.248112                       # average overall mshr miss latency ((Tick/Count))
system.cpu0.dcache.demandAvgMshrMissLatency::total 17452.248112                       # average overall mshr miss latency ((Tick/Count))
system.cpu0.dcache.overallAvgMshrMissLatency::cpu0.data 17452.248112                       # average overall mshr miss latency ((Tick/Count))
system.cpu0.dcache.overallAvgMshrMissLatency::total 17452.248112                       # average overall mshr miss latency ((Tick/Count))
system.cpu0.dcache.replacements                139105                       # number of replacements (Count)
system.cpu0.dcache.LoadLockedReq.hits::cpu0.data        32005                       # number of LoadLockedReq hits (Count)
system.cpu0.dcache.LoadLockedReq.hits::total        32005                       # number of LoadLockedReq hits (Count)
system.cpu0.dcache.LoadLockedReq.misses::cpu0.data         6807                       # number of LoadLockedReq misses (Count)
system.cpu0.dcache.LoadLockedReq.misses::total         6807                       # number of LoadLockedReq misses (Count)
system.cpu0.dcache.LoadLockedReq.missLatency::cpu0.data    173881491                       # number of LoadLockedReq miss ticks (Tick)
system.cpu0.dcache.LoadLockedReq.missLatency::total    173881491                       # number of LoadLockedReq miss ticks (Tick)
system.cpu0.dcache.LoadLockedReq.accesses::cpu0.data        38812                       # number of LoadLockedReq accesses(hits+misses) (Count)
system.cpu0.dcache.LoadLockedReq.accesses::total        38812                       # number of LoadLockedReq accesses(hits+misses) (Count)
system.cpu0.dcache.LoadLockedReq.missRate::cpu0.data     0.175384                       # miss rate for LoadLockedReq accesses (Ratio)
system.cpu0.dcache.LoadLockedReq.missRate::total     0.175384                       # miss rate for LoadLockedReq accesses (Ratio)
system.cpu0.dcache.LoadLockedReq.avgMissLatency::cpu0.data 25544.511679                       # average LoadLockedReq miss latency ((Tick/Count))
system.cpu0.dcache.LoadLockedReq.avgMissLatency::total 25544.511679                       # average LoadLockedReq miss latency ((Tick/Count))
system.cpu0.dcache.LoadLockedReq.mshrHits::cpu0.data         4060                       # number of LoadLockedReq MSHR hits (Count)
system.cpu0.dcache.LoadLockedReq.mshrHits::total         4060                       # number of LoadLockedReq MSHR hits (Count)
system.cpu0.dcache.LoadLockedReq.mshrMisses::cpu0.data         2747                       # number of LoadLockedReq MSHR misses (Count)
system.cpu0.dcache.LoadLockedReq.mshrMisses::total         2747                       # number of LoadLockedReq MSHR misses (Count)
system.cpu0.dcache.LoadLockedReq.mshrMissLatency::cpu0.data     73617684                       # number of LoadLockedReq MSHR miss ticks (Tick)
system.cpu0.dcache.LoadLockedReq.mshrMissLatency::total     73617684                       # number of LoadLockedReq MSHR miss ticks (Tick)
system.cpu0.dcache.LoadLockedReq.mshrMissRate::cpu0.data     0.070777                       # mshr miss rate for LoadLockedReq accesses (Ratio)
system.cpu0.dcache.LoadLockedReq.mshrMissRate::total     0.070777                       # mshr miss rate for LoadLockedReq accesses (Ratio)
system.cpu0.dcache.LoadLockedReq.avgMshrMissLatency::cpu0.data 26799.302512                       # average LoadLockedReq mshr miss latency ((Tick/Count))
system.cpu0.dcache.LoadLockedReq.avgMshrMissLatency::total 26799.302512                       # average LoadLockedReq mshr miss latency ((Tick/Count))
system.cpu0.dcache.ReadReq.hits::cpu0.data     14901340                       # number of ReadReq hits (Count)
system.cpu0.dcache.ReadReq.hits::total       14901340                       # number of ReadReq hits (Count)
system.cpu0.dcache.ReadReq.misses::cpu0.data       290172                       # number of ReadReq misses (Count)
system.cpu0.dcache.ReadReq.misses::total       290172                       # number of ReadReq misses (Count)
system.cpu0.dcache.ReadReq.missLatency::cpu0.data   3945757851                       # number of ReadReq miss ticks (Tick)
system.cpu0.dcache.ReadReq.missLatency::total   3945757851                       # number of ReadReq miss ticks (Tick)
system.cpu0.dcache.ReadReq.accesses::cpu0.data     15191512                       # number of ReadReq accesses(hits+misses) (Count)
system.cpu0.dcache.ReadReq.accesses::total     15191512                       # number of ReadReq accesses(hits+misses) (Count)
system.cpu0.dcache.ReadReq.missRate::cpu0.data     0.019101                       # miss rate for ReadReq accesses (Ratio)
system.cpu0.dcache.ReadReq.missRate::total     0.019101                       # miss rate for ReadReq accesses (Ratio)
system.cpu0.dcache.ReadReq.avgMissLatency::cpu0.data 13597.996537                       # average ReadReq miss latency ((Tick/Count))
system.cpu0.dcache.ReadReq.avgMissLatency::total 13597.996537                       # average ReadReq miss latency ((Tick/Count))
system.cpu0.dcache.ReadReq.mshrHits::cpu0.data       172013                       # number of ReadReq MSHR hits (Count)
system.cpu0.dcache.ReadReq.mshrHits::total       172013                       # number of ReadReq MSHR hits (Count)
system.cpu0.dcache.ReadReq.mshrMisses::cpu0.data       118159                       # number of ReadReq MSHR misses (Count)
system.cpu0.dcache.ReadReq.mshrMisses::total       118159                       # number of ReadReq MSHR misses (Count)
system.cpu0.dcache.ReadReq.mshrMissLatency::cpu0.data   1396090269                       # number of ReadReq MSHR miss ticks (Tick)
system.cpu0.dcache.ReadReq.mshrMissLatency::total   1396090269                       # number of ReadReq MSHR miss ticks (Tick)
system.cpu0.dcache.ReadReq.mshrMissRate::cpu0.data     0.007778                       # mshr miss rate for ReadReq accesses (Ratio)
system.cpu0.dcache.ReadReq.mshrMissRate::total     0.007778                       # mshr miss rate for ReadReq accesses (Ratio)
system.cpu0.dcache.ReadReq.avgMshrMissLatency::cpu0.data 11815.352779                       # average ReadReq mshr miss latency ((Tick/Count))
system.cpu0.dcache.ReadReq.avgMshrMissLatency::total 11815.352779                       # average ReadReq mshr miss latency ((Tick/Count))
system.cpu0.dcache.StoreCondFailReq.missLatency::cpu0.data      2488647                       # number of StoreCondFailReq miss ticks (Tick)
system.cpu0.dcache.StoreCondFailReq.missLatency::total      2488647                       # number of StoreCondFailReq miss ticks (Tick)
system.cpu0.dcache.StoreCondFailReq.avgMissLatency::cpu0.data          inf                       # average StoreCondFailReq miss latency ((Tick/Count))
system.cpu0.dcache.StoreCondFailReq.avgMissLatency::total          inf                       # average StoreCondFailReq miss latency ((Tick/Count))
system.cpu0.dcache.StoreCondFailReq.mshrMissLatency::cpu0.data      2447235                       # number of StoreCondFailReq MSHR miss ticks (Tick)
system.cpu0.dcache.StoreCondFailReq.mshrMissLatency::total      2447235                       # number of StoreCondFailReq MSHR miss ticks (Tick)
system.cpu0.dcache.StoreCondFailReq.avgMshrMissLatency::cpu0.data          inf                       # average StoreCondFailReq mshr miss latency ((Tick/Count))
system.cpu0.dcache.StoreCondFailReq.avgMshrMissLatency::total          inf                       # average StoreCondFailReq mshr miss latency ((Tick/Count))
system.cpu0.dcache.StoreCondReq.hits::cpu0.data        26454                       # number of StoreCondReq hits (Count)
system.cpu0.dcache.StoreCondReq.hits::total        26454                       # number of StoreCondReq hits (Count)
system.cpu0.dcache.StoreCondReq.misses::cpu0.data         4786                       # number of StoreCondReq misses (Count)
system.cpu0.dcache.StoreCondReq.misses::total         4786                       # number of StoreCondReq misses (Count)
system.cpu0.dcache.StoreCondReq.missLatency::cpu0.data    122154333                       # number of StoreCondReq miss ticks (Tick)
system.cpu0.dcache.StoreCondReq.missLatency::total    122154333                       # number of StoreCondReq miss ticks (Tick)
system.cpu0.dcache.StoreCondReq.accesses::cpu0.data        31240                       # number of StoreCondReq accesses(hits+misses) (Count)
system.cpu0.dcache.StoreCondReq.accesses::total        31240                       # number of StoreCondReq accesses(hits+misses) (Count)
system.cpu0.dcache.StoreCondReq.missRate::cpu0.data     0.153201                       # miss rate for StoreCondReq accesses (Ratio)
system.cpu0.dcache.StoreCondReq.missRate::total     0.153201                       # miss rate for StoreCondReq accesses (Ratio)
system.cpu0.dcache.StoreCondReq.avgMissLatency::cpu0.data 25523.262223                       # average StoreCondReq miss latency ((Tick/Count))
system.cpu0.dcache.StoreCondReq.avgMissLatency::total 25523.262223                       # average StoreCondReq miss latency ((Tick/Count))
system.cpu0.dcache.StoreCondReq.mshrMisses::cpu0.data         4786                       # number of StoreCondReq MSHR misses (Count)
system.cpu0.dcache.StoreCondReq.mshrMisses::total         4786                       # number of StoreCondReq MSHR misses (Count)
system.cpu0.dcache.StoreCondReq.mshrMissLatency::cpu0.data    118778541                       # number of StoreCondReq MSHR miss ticks (Tick)
system.cpu0.dcache.StoreCondReq.mshrMissLatency::total    118778541                       # number of StoreCondReq MSHR miss ticks (Tick)
system.cpu0.dcache.StoreCondReq.mshrMissRate::cpu0.data     0.153201                       # mshr miss rate for StoreCondReq accesses (Ratio)
system.cpu0.dcache.StoreCondReq.mshrMissRate::total     0.153201                       # mshr miss rate for StoreCondReq accesses (Ratio)
system.cpu0.dcache.StoreCondReq.avgMshrMissLatency::cpu0.data 24817.914960                       # average StoreCondReq mshr miss latency ((Tick/Count))
system.cpu0.dcache.StoreCondReq.avgMshrMissLatency::total 24817.914960                       # average StoreCondReq mshr miss latency ((Tick/Count))
system.cpu0.dcache.SwapReq.hits::cpu0.data        33297                       # number of SwapReq hits (Count)
system.cpu0.dcache.SwapReq.hits::total          33297                       # number of SwapReq hits (Count)
system.cpu0.dcache.SwapReq.misses::cpu0.data         2651                       # number of SwapReq misses (Count)
system.cpu0.dcache.SwapReq.misses::total         2651                       # number of SwapReq misses (Count)
system.cpu0.dcache.SwapReq.missLatency::cpu0.data     74778642                       # number of SwapReq miss ticks (Tick)
system.cpu0.dcache.SwapReq.missLatency::total     74778642                       # number of SwapReq miss ticks (Tick)
system.cpu0.dcache.SwapReq.accesses::cpu0.data        35948                       # number of SwapReq accesses(hits+misses) (Count)
system.cpu0.dcache.SwapReq.accesses::total        35948                       # number of SwapReq accesses(hits+misses) (Count)
system.cpu0.dcache.SwapReq.missRate::cpu0.data     0.073745                       # miss rate for SwapReq accesses (Ratio)
system.cpu0.dcache.SwapReq.missRate::total     0.073745                       # miss rate for SwapReq accesses (Ratio)
system.cpu0.dcache.SwapReq.avgMissLatency::cpu0.data 28207.711052                       # average SwapReq miss latency ((Tick/Count))
system.cpu0.dcache.SwapReq.avgMissLatency::total 28207.711052                       # average SwapReq miss latency ((Tick/Count))
system.cpu0.dcache.SwapReq.mshrHits::cpu0.data            7                       # number of SwapReq MSHR hits (Count)
system.cpu0.dcache.SwapReq.mshrHits::total            7                       # number of SwapReq MSHR hits (Count)
system.cpu0.dcache.SwapReq.mshrMisses::cpu0.data         2644                       # number of SwapReq MSHR misses (Count)
system.cpu0.dcache.SwapReq.mshrMisses::total         2644                       # number of SwapReq MSHR misses (Count)
system.cpu0.dcache.SwapReq.mshrMissLatency::cpu0.data     72885828                       # number of SwapReq MSHR miss ticks (Tick)
system.cpu0.dcache.SwapReq.mshrMissLatency::total     72885828                       # number of SwapReq MSHR miss ticks (Tick)
system.cpu0.dcache.SwapReq.mshrMissRate::cpu0.data     0.073551                       # mshr miss rate for SwapReq accesses (Ratio)
system.cpu0.dcache.SwapReq.mshrMissRate::total     0.073551                       # mshr miss rate for SwapReq accesses (Ratio)
system.cpu0.dcache.SwapReq.avgMshrMissLatency::cpu0.data 27566.500756                       # average SwapReq mshr miss latency ((Tick/Count))
system.cpu0.dcache.SwapReq.avgMshrMissLatency::total 27566.500756                       # average SwapReq mshr miss latency ((Tick/Count))
system.cpu0.dcache.WriteReq.hits::cpu0.data      2913863                       # number of WriteReq hits (Count)
system.cpu0.dcache.WriteReq.hits::total       2913863                       # number of WriteReq hits (Count)
system.cpu0.dcache.WriteReq.misses::cpu0.data       162093                       # number of WriteReq misses (Count)
system.cpu0.dcache.WriteReq.misses::total       162093                       # number of WriteReq misses (Count)
system.cpu0.dcache.WriteReq.missLatency::cpu0.data   5237834368                       # number of WriteReq miss ticks (Tick)
system.cpu0.dcache.WriteReq.missLatency::total   5237834368                       # number of WriteReq miss ticks (Tick)
system.cpu0.dcache.WriteReq.accesses::cpu0.data      3075956                       # number of WriteReq accesses(hits+misses) (Count)
system.cpu0.dcache.WriteReq.accesses::total      3075956                       # number of WriteReq accesses(hits+misses) (Count)
system.cpu0.dcache.WriteReq.missRate::cpu0.data     0.052697                       # miss rate for WriteReq accesses (Ratio)
system.cpu0.dcache.WriteReq.missRate::total     0.052697                       # miss rate for WriteReq accesses (Ratio)
system.cpu0.dcache.WriteReq.avgMissLatency::cpu0.data 32313.760421                       # average WriteReq miss latency ((Tick/Count))
system.cpu0.dcache.WriteReq.avgMissLatency::total 32313.760421                       # average WriteReq miss latency ((Tick/Count))
system.cpu0.dcache.WriteReq.mshrHits::cpu0.data       122948                       # number of WriteReq MSHR hits (Count)
system.cpu0.dcache.WriteReq.mshrHits::total       122948                       # number of WriteReq MSHR hits (Count)
system.cpu0.dcache.WriteReq.mshrMisses::cpu0.data        39145                       # number of WriteReq MSHR misses (Count)
system.cpu0.dcache.WriteReq.mshrMisses::total        39145                       # number of WriteReq MSHR misses (Count)
system.cpu0.dcache.WriteReq.mshrMissLatency::cpu0.data   1349218168                       # number of WriteReq MSHR miss ticks (Tick)
system.cpu0.dcache.WriteReq.mshrMissLatency::total   1349218168                       # number of WriteReq MSHR miss ticks (Tick)
system.cpu0.dcache.WriteReq.mshrMissRate::cpu0.data     0.012726                       # mshr miss rate for WriteReq accesses (Ratio)
system.cpu0.dcache.WriteReq.mshrMissRate::total     0.012726                       # mshr miss rate for WriteReq accesses (Ratio)
system.cpu0.dcache.WriteReq.avgMshrMissLatency::cpu0.data 34467.190395                       # average WriteReq mshr miss latency ((Tick/Count))
system.cpu0.dcache.WriteReq.avgMshrMissLatency::total 34467.190395                       # average WriteReq mshr miss latency ((Tick/Count))
system.cpu0.dcache.power_state.pwrStateResidencyTicks::UNDEFINED  14282589678                       # Cumulative time (in ticks) in various power states (Tick)
system.cpu0.dcache.tags.tagsInUse         1014.009109                       # Average ticks per tags in use ((Tick/Count))
system.cpu0.dcache.tags.totalRefs            18098215                       # Total number of references to valid blocks. (Count)
system.cpu0.dcache.tags.sampledRefs            151974                       # Sample count of references to valid blocks. (Count)
system.cpu0.dcache.tags.avgRefs            119.087574                       # Average number of references to valid blocks. ((Count/Count))
system.cpu0.dcache.tags.warmupTick             288099                       # The tick when the warmup percentage was hit. (Tick)
system.cpu0.dcache.tags.occupancies::cpu0.data  1014.009109                       # Average occupied blocks per tick, per requestor ((Count/Tick))
system.cpu0.dcache.tags.avgOccs::cpu0.data     0.990243                       # Average percentage of cache occupancy ((Ratio/Tick))
system.cpu0.dcache.tags.avgOccs::total       0.990243                       # Average percentage of cache occupancy ((Ratio/Tick))
system.cpu0.dcache.tags.occupanciesTaskId::1024         1024                       # Occupied blocks per task id (Count)
system.cpu0.dcache.tags.ageTaskId_1024::0          363                       # Occupied blocks per task id, per block age (Count)
system.cpu0.dcache.tags.ageTaskId_1024::1          635                       # Occupied blocks per task id, per block age (Count)
system.cpu0.dcache.tags.ageTaskId_1024::2           25                       # Occupied blocks per task id, per block age (Count)
system.cpu0.dcache.tags.ageTaskId_1024::3            1                       # Occupied blocks per task id, per block age (Count)
system.cpu0.dcache.tags.ratioOccsTaskId::1024            1                       # Ratio of occupied blocks and all blocks, per task id (Ratio)
system.cpu0.dcache.tags.tagAccesses         147139718                       # Number of tag accesses (Count)
system.cpu0.dcache.tags.dataAccesses        147139718                       # Number of data accesses (Count)
system.cpu0.dcache.tags.power_state.pwrStateResidencyTicks::UNDEFINED  14282589678                       # Cumulative time (in ticks) in various power states (Tick)
system.cpu0.decode.idleCycles                 5953680                       # Number of cycles decode is idle (Cycle)
system.cpu0.decode.blockedCycles             16567982                       # Number of cycles decode is blocked (Cycle)
system.cpu0.decode.runCycles                 11456982                       # Number of cycles decode is running (Cycle)
system.cpu0.decode.unblockCycles              3676917                       # Number of cycles decode is unblocking (Cycle)
system.cpu0.decode.squashCycles                187273                       # Number of cycles decode is squashing (Cycle)
system.cpu0.decode.branchResolved             5704419                       # Number of times decode resolved a branch (Count)
system.cpu0.decode.branchMispred                11181                       # Number of times decode detected a branch misprediction (Count)
system.cpu0.decode.decodedInsts              93351828                       # Number of instructions handled by decode (Count)
system.cpu0.decode.squashedInsts                28163                       # Number of squashed instructions handled by decode (Count)
system.cpu0.dtb_walker_cache.blockedCycles::no_mshrs            0                       # number of cycles access was blocked (Cycle)
system.cpu0.dtb_walker_cache.blockedCycles::no_targets            0                       # number of cycles access was blocked (Cycle)
system.cpu0.dtb_walker_cache.blockedCauses::no_mshrs            0                       # number of times access was blocked (Count)
system.cpu0.dtb_walker_cache.blockedCauses::no_targets            0                       # number of times access was blocked (Count)
system.cpu0.dtb_walker_cache.avgBlocked::no_mshrs          nan                       # average number of cycles each access was blocked ((Cycle/Count))
system.cpu0.dtb_walker_cache.avgBlocked::no_targets          nan                       # average number of cycles each access was blocked ((Cycle/Count))
system.cpu0.dtb_walker_cache.replacements            0                       # number of replacements (Count)
system.cpu0.dtb_walker_cache.power_state.pwrStateResidencyTicks::UNDEFINED  14282589678                       # Cumulative time (in ticks) in various power states (Tick)
system.cpu0.dtb_walker_cache.tags.tagsInUse            0                       # Average ticks per tags in use ((Tick/Count))
system.cpu0.dtb_walker_cache.tags.totalRefs            0                       # Total number of references to valid blocks. (Count)
system.cpu0.dtb_walker_cache.tags.sampledRefs            0                       # Sample count of references to valid blocks. (Count)
system.cpu0.dtb_walker_cache.tags.avgRefs          nan                       # Average number of references to valid blocks. ((Count/Count))
system.cpu0.dtb_walker_cache.tags.warmupTick            0                       # The tick when the warmup percentage was hit. (Tick)
system.cpu0.dtb_walker_cache.tags.tagAccesses            0                       # Number of tag accesses (Count)
system.cpu0.dtb_walker_cache.tags.dataAccesses            0                       # Number of data accesses (Count)
system.cpu0.dtb_walker_cache.tags.power_state.pwrStateResidencyTicks::UNDEFINED  14282589678                       # Cumulative time (in ticks) in various power states (Tick)
system.cpu0.fetch.icacheStallCycles           8359190                       # Number of cycles fetch is stalled on an Icache miss (Cycle)
system.cpu0.fetch.insts                      97116607                       # Number of instructions fetch has processed (Count)
system.cpu0.fetch.branches                    9365376                       # Number of branches that fetch encountered (Count)
system.cpu0.fetch.predictedBranches           6222298                       # Number of branches that fetch has predicted taken (Count)
system.cpu0.fetch.cycles                     29285251                       # Number of cycles fetch has run and was not squashing or blocked (Cycle)
system.cpu0.fetch.squashCycles                 396666                       # Number of cycles fetch has spent squashing (Cycle)
system.cpu0.fetch.miscStallCycles                   4                       # Number of cycles fetch has spent waiting on interrupts, or bad addresses, or out of MSHRs (Cycle)
system.cpu0.fetch.icacheWaitRetryStallCycles           56                       # Number of stall cycles due to full MSHR (Cycle)
system.cpu0.fetch.cacheLines                  8225646                       # Number of cache lines fetched (Count)
system.cpu0.fetch.icacheSquashes                46098                       # Number of outstanding Icache misses that were squashed (Count)
system.cpu0.fetch.nisnDist::samples          37842834                       # Number of instructions fetched each cycle (Total) (Count)
system.cpu0.fetch.nisnDist::mean             2.567544                       # Number of instructions fetched each cycle (Total) (Count)
system.cpu0.fetch.nisnDist::stdev            3.216280                       # Number of instructions fetched each cycle (Total) (Count)
system.cpu0.fetch.nisnDist::underflows              0      0.00%      0.00% # Number of instructions fetched each cycle (Total) (Count)
system.cpu0.fetch.nisnDist::0                18931493     50.03%     50.03% # Number of instructions fetched each cycle (Total) (Count)
system.cpu0.fetch.nisnDist::1                 2390983      6.32%     56.34% # Number of instructions fetched each cycle (Total) (Count)
system.cpu0.fetch.nisnDist::2                 2551105      6.74%     63.09% # Number of instructions fetched each cycle (Total) (Count)
system.cpu0.fetch.nisnDist::3                 1938575      5.12%     68.21% # Number of instructions fetched each cycle (Total) (Count)
system.cpu0.fetch.nisnDist::4                 1102986      2.91%     71.12% # Number of instructions fetched each cycle (Total) (Count)
system.cpu0.fetch.nisnDist::5                 2006364      5.30%     76.43% # Number of instructions fetched each cycle (Total) (Count)
system.cpu0.fetch.nisnDist::6                  761090      2.01%     78.44% # Number of instructions fetched each cycle (Total) (Count)
system.cpu0.fetch.nisnDist::7                  437972      1.16%     79.59% # Number of instructions fetched each cycle (Total) (Count)
system.cpu0.fetch.nisnDist::8                 7722266     20.41%    100.00% # Number of instructions fetched each cycle (Total) (Count)
system.cpu0.fetch.nisnDist::overflows               0      0.00%    100.00% # Number of instructions fetched each cycle (Total) (Count)
system.cpu0.fetch.nisnDist::min_value               0                       # Number of instructions fetched each cycle (Total) (Count)
system.cpu0.fetch.nisnDist::max_value               8                       # Number of instructions fetched each cycle (Total) (Count)
system.cpu0.fetch.nisnDist::total            37842834                       # Number of instructions fetched each cycle (Total) (Count)
system.cpu0.fetch.branchRate                 0.246575                       # Number of branch fetches per cycle (Ratio)
system.cpu0.fetch.rate                       2.556919                       # Number of inst fetches per cycle ((Count/Cycle))
system.cpu0.icache.demandHits::cpu0.inst      8223786                       # number of demand (read+write) hits (Count)
system.cpu0.icache.demandHits::total          8223786                       # number of demand (read+write) hits (Count)
system.cpu0.icache.overallHits::cpu0.inst      8223786                       # number of overall hits (Count)
system.cpu0.icache.overallHits::total         8223786                       # number of overall hits (Count)
system.cpu0.icache.demandMisses::cpu0.inst         1860                       # number of demand (read+write) misses (Count)
system.cpu0.icache.demandMisses::total           1860                       # number of demand (read+write) misses (Count)
system.cpu0.icache.overallMisses::cpu0.inst         1860                       # number of overall misses (Count)
system.cpu0.icache.overallMisses::total          1860                       # number of overall misses (Count)
system.cpu0.icache.demandMissLatency::cpu0.inst    128945900                       # number of demand (read+write) miss ticks (Tick)
system.cpu0.icache.demandMissLatency::total    128945900                       # number of demand (read+write) miss ticks (Tick)
system.cpu0.icache.overallMissLatency::cpu0.inst    128945900                       # number of overall miss ticks (Tick)
system.cpu0.icache.overallMissLatency::total    128945900                       # number of overall miss ticks (Tick)
system.cpu0.icache.demandAccesses::cpu0.inst      8225646                       # number of demand (read+write) accesses (Count)
system.cpu0.icache.demandAccesses::total      8225646                       # number of demand (read+write) accesses (Count)
system.cpu0.icache.overallAccesses::cpu0.inst      8225646                       # number of overall (read+write) accesses (Count)
system.cpu0.icache.overallAccesses::total      8225646                       # number of overall (read+write) accesses (Count)
system.cpu0.icache.demandMissRate::cpu0.inst     0.000226                       # miss rate for demand accesses (Ratio)
system.cpu0.icache.demandMissRate::total     0.000226                       # miss rate for demand accesses (Ratio)
system.cpu0.icache.overallMissRate::cpu0.inst     0.000226                       # miss rate for overall accesses (Ratio)
system.cpu0.icache.overallMissRate::total     0.000226                       # miss rate for overall accesses (Ratio)
system.cpu0.icache.demandAvgMissLatency::cpu0.inst 69325.752688                       # average overall miss latency in ticks ((Tick/Count))
system.cpu0.icache.demandAvgMissLatency::total 69325.752688                       # average overall miss latency in ticks ((Tick/Count))
system.cpu0.icache.overallAvgMissLatency::cpu0.inst 69325.752688                       # average overall miss latency ((Tick/Count))
system.cpu0.icache.overallAvgMissLatency::total 69325.752688                       # average overall miss latency ((Tick/Count))
system.cpu0.icache.blockedCycles::no_mshrs         1001                       # number of cycles access was blocked (Cycle)
system.cpu0.icache.blockedCycles::no_targets            0                       # number of cycles access was blocked (Cycle)
system.cpu0.icache.blockedCauses::no_mshrs           16                       # number of times access was blocked (Count)
system.cpu0.icache.blockedCauses::no_targets            0                       # number of times access was blocked (Count)
system.cpu0.icache.avgBlocked::no_mshrs     62.562500                       # average number of cycles each access was blocked ((Cycle/Count))
system.cpu0.icache.avgBlocked::no_targets          nan                       # average number of cycles each access was blocked ((Cycle/Count))
system.cpu0.icache.writebacks::writebacks          872                       # number of writebacks (Count)
system.cpu0.icache.writebacks::total              872                       # number of writebacks (Count)
system.cpu0.icache.demandMshrHits::cpu0.inst          475                       # number of demand (read+write) MSHR hits (Count)
system.cpu0.icache.demandMshrHits::total          475                       # number of demand (read+write) MSHR hits (Count)
system.cpu0.icache.overallMshrHits::cpu0.inst          475                       # number of overall MSHR hits (Count)
system.cpu0.icache.overallMshrHits::total          475                       # number of overall MSHR hits (Count)
system.cpu0.icache.demandMshrMisses::cpu0.inst         1385                       # number of demand (read+write) MSHR misses (Count)
system.cpu0.icache.demandMshrMisses::total         1385                       # number of demand (read+write) MSHR misses (Count)
system.cpu0.icache.overallMshrMisses::cpu0.inst         1385                       # number of overall MSHR misses (Count)
system.cpu0.icache.overallMshrMisses::total         1385                       # number of overall MSHR misses (Count)
system.cpu0.icache.demandMshrMissLatency::cpu0.inst     99279557                       # number of demand (read+write) MSHR miss ticks (Tick)
system.cpu0.icache.demandMshrMissLatency::total     99279557                       # number of demand (read+write) MSHR miss ticks (Tick)
system.cpu0.icache.overallMshrMissLatency::cpu0.inst     99279557                       # number of overall MSHR miss ticks (Tick)
system.cpu0.icache.overallMshrMissLatency::total     99279557                       # number of overall MSHR miss ticks (Tick)
system.cpu0.icache.demandMshrMissRate::cpu0.inst     0.000168                       # mshr miss ratio for demand accesses (Ratio)
system.cpu0.icache.demandMshrMissRate::total     0.000168                       # mshr miss ratio for demand accesses (Ratio)
system.cpu0.icache.overallMshrMissRate::cpu0.inst     0.000168                       # mshr miss ratio for overall accesses (Ratio)
system.cpu0.icache.overallMshrMissRate::total     0.000168                       # mshr miss ratio for overall accesses (Ratio)
system.cpu0.icache.demandAvgMshrMissLatency::cpu0.inst 71681.990614                       # average overall mshr miss latency ((Tick/Count))
system.cpu0.icache.demandAvgMshrMissLatency::total 71681.990614                       # average overall mshr miss latency ((Tick/Count))
system.cpu0.icache.overallAvgMshrMissLatency::cpu0.inst 71681.990614                       # average overall mshr miss latency ((Tick/Count))
system.cpu0.icache.overallAvgMshrMissLatency::total 71681.990614                       # average overall mshr miss latency ((Tick/Count))
system.cpu0.icache.replacements                   872                       # number of replacements (Count)
system.cpu0.icache.ReadReq.hits::cpu0.inst      8223786                       # number of ReadReq hits (Count)
system.cpu0.icache.ReadReq.hits::total        8223786                       # number of ReadReq hits (Count)
system.cpu0.icache.ReadReq.misses::cpu0.inst         1860                       # number of ReadReq misses (Count)
system.cpu0.icache.ReadReq.misses::total         1860                       # number of ReadReq misses (Count)
system.cpu0.icache.ReadReq.missLatency::cpu0.inst    128945900                       # number of ReadReq miss ticks (Tick)
system.cpu0.icache.ReadReq.missLatency::total    128945900                       # number of ReadReq miss ticks (Tick)
system.cpu0.icache.ReadReq.accesses::cpu0.inst      8225646                       # number of ReadReq accesses(hits+misses) (Count)
system.cpu0.icache.ReadReq.accesses::total      8225646                       # number of ReadReq accesses(hits+misses) (Count)
system.cpu0.icache.ReadReq.missRate::cpu0.inst     0.000226                       # miss rate for ReadReq accesses (Ratio)
system.cpu0.icache.ReadReq.missRate::total     0.000226                       # miss rate for ReadReq accesses (Ratio)
system.cpu0.icache.ReadReq.avgMissLatency::cpu0.inst 69325.752688                       # average ReadReq miss latency ((Tick/Count))
system.cpu0.icache.ReadReq.avgMissLatency::total 69325.752688                       # average ReadReq miss latency ((Tick/Count))
system.cpu0.icache.ReadReq.mshrHits::cpu0.inst          475                       # number of ReadReq MSHR hits (Count)
system.cpu0.icache.ReadReq.mshrHits::total          475                       # number of ReadReq MSHR hits (Count)
system.cpu0.icache.ReadReq.mshrMisses::cpu0.inst         1385                       # number of ReadReq MSHR misses (Count)
system.cpu0.icache.ReadReq.mshrMisses::total         1385                       # number of ReadReq MSHR misses (Count)
system.cpu0.icache.ReadReq.mshrMissLatency::cpu0.inst     99279557                       # number of ReadReq MSHR miss ticks (Tick)
system.cpu0.icache.ReadReq.mshrMissLatency::total     99279557                       # number of ReadReq MSHR miss ticks (Tick)
system.cpu0.icache.ReadReq.mshrMissRate::cpu0.inst     0.000168                       # mshr miss rate for ReadReq accesses (Ratio)
system.cpu0.icache.ReadReq.mshrMissRate::total     0.000168                       # mshr miss rate for ReadReq accesses (Ratio)
system.cpu0.icache.ReadReq.avgMshrMissLatency::cpu0.inst 71681.990614                       # average ReadReq mshr miss latency ((Tick/Count))
system.cpu0.icache.ReadReq.avgMshrMissLatency::total 71681.990614                       # average ReadReq mshr miss latency ((Tick/Count))
system.cpu0.icache.power_state.pwrStateResidencyTicks::UNDEFINED  14282589678                       # Cumulative time (in ticks) in various power states (Tick)
system.cpu0.icache.tags.tagsInUse          503.549378                       # Average ticks per tags in use ((Tick/Count))
[...]
system.mem_ctrls.dram.perBankWrBursts::12            0                       # Per bank write bursts (Count)
system.mem_ctrls.dram.perBankWrBursts::13            0                       # Per bank write bursts (Count)
system.mem_ctrls.dram.perBankWrBursts::14            0                       # Per bank write bursts (Count)
system.mem_ctrls.dram.perBankWrBursts::15            0                       # Per bank write bursts (Count)
system.mem_ctrls.dram.totQLat               142710577                       # Total ticks spent queuing (Tick)
system.mem_ctrls.dram.totBusLat              75640000                       # Total ticks spent in databus transfers (Tick)
system.mem_ctrls.dram.totMemAccLat          426360577                       # Total ticks spent from burst creation until serviced by the DRAM (Tick)
system.mem_ctrls.dram.avgQLat                 9433.54                       # Average queueing delay per DRAM burst ((Tick/Count))
system.mem_ctrls.dram.avgBusLat               5000.00                       # Average bus latency per DRAM burst ((Tick/Count))
system.mem_ctrls.dram.avgMemAccLat           28183.54                       # Average memory access latency per DRAM burst ((Tick/Count))
system.mem_ctrls.dram.readRowHits               13039                       # Number of row buffer hits during reads (Count)
system.mem_ctrls.dram.writeRowHits                  0                       # Number of row buffer hits during writes (Count)
system.mem_ctrls.dram.readRowHitRate            86.19                       # Row buffer hit rate for reads (Ratio)
system.mem_ctrls.dram.writeRowHitRate             nan                       # Row buffer hit rate for writes (Ratio)
system.mem_ctrls.dram.bytesPerActivate::samples         2083                       # Bytes accessed per row activation (Byte)
system.mem_ctrls.dram.bytesPerActivate::mean   464.345655                       # Bytes accessed per row activation (Byte)
system.mem_ctrls.dram.bytesPerActivate::gmean   283.165358                       # Bytes accessed per row activation (Byte)
system.mem_ctrls.dram.bytesPerActivate::stdev   388.700344                       # Bytes accessed per row activation (Byte)
system.mem_ctrls.dram.bytesPerActivate::0-127          525     25.20%     25.20% # Bytes accessed per row activation (Byte)
system.mem_ctrls.dram.bytesPerActivate::128-255          344     16.51%     41.72% # Bytes accessed per row activation (Byte)
system.mem_ctrls.dram.bytesPerActivate::256-383          207      9.94%     51.66% # Bytes accessed per row activation (Byte)
system.mem_ctrls.dram.bytesPerActivate::384-511          174      8.35%     60.01% # Bytes accessed per row activation (Byte)
system.mem_ctrls.dram.bytesPerActivate::512-639          111      5.33%     65.34% # Bytes accessed per row activation (Byte)
system.mem_ctrls.dram.bytesPerActivate::640-767           62      2.98%     68.31% # Bytes accessed per row activation (Byte)
system.mem_ctrls.dram.bytesPerActivate::768-895           75      3.60%     71.92% # Bytes accessed per row activation (Byte)
system.mem_ctrls.dram.bytesPerActivate::896-1023           58      2.78%     74.70% # Bytes accessed per row activation (Byte)
system.mem_ctrls.dram.bytesPerActivate::1024-1151          527     25.30%    100.00% # Bytes accessed per row activation (Byte)
system.mem_ctrls.dram.bytesPerActivate::total         2083                       # Bytes accessed per row activation (Byte)
system.mem_ctrls.dram.bytesRead                968192                       # Total bytes read (Byte)
system.mem_ctrls.dram.bytesWritten                  0                       # Total bytes written (Byte)
system.mem_ctrls.dram.avgRdBW               67.788267                       # Average DRAM read bandwidth in MiBytes/s ((Byte/Second))
system.mem_ctrls.dram.avgWrBW                       0                       # Average DRAM write bandwidth in MiBytes/s ((Byte/Second))
system.mem_ctrls.dram.peakBW                 12800.00                       # Theoretical peak bandwidth in MiByte/s ((Byte/Second))
system.mem_ctrls.dram.busUtil                    0.53                       # Data bus utilization in percentage (Ratio)
system.mem_ctrls.dram.busUtilRead                0.53                       # Data bus utilization in percentage for reads (Ratio)
system.mem_ctrls.dram.busUtilWrite               0.00                       # Data bus utilization in percentage for writes (Ratio)
system.mem_ctrls.dram.pageHitRate               86.19                       # Row buffer hit rate, read and write combined (Ratio)
system.mem_ctrls.dram.power_state.pwrStateResidencyTicks::UNDEFINED  14282589678                       # Cumulative time (in ticks) in various power states (Tick)
system.mem_ctrls.dram.rank0.actEnergy         7439880                       # Energy for activate commands per rank (pJ) (Joule)
system.mem_ctrls.dram.rank0.preEnergy         3943005                       # Energy for precharge commands per rank (pJ) (Joule)
system.mem_ctrls.dram.rank0.readEnergy       53564280                       # Energy for read commands per rank (pJ) (Joule)
system.mem_ctrls.dram.rank0.writeEnergy             0                       # Energy for write commands per rank (pJ) (Joule)
system.mem_ctrls.dram.rank0.refreshEnergy 1127249760.000000                       # Energy for refresh commands per rank (pJ) (Joule)
system.mem_ctrls.dram.rank0.actBackEnergy    773581770                       # Energy for active background per rank (pJ) (Joule)
system.mem_ctrls.dram.rank0.preBackEnergy   4833077280                       # Energy for precharge background per rank (pJ) (Joule)
system.mem_ctrls.dram.rank0.actPowerDownEnergy            0                       # Energy for active power-down per rank (pJ) (Joule)
system.mem_ctrls.dram.rank0.prePowerDownEnergy            0                       # Energy for precharge power-down per rank (pJ) (Joule)
system.mem_ctrls.dram.rank0.selfRefreshEnergy            0                       # Energy for self refresh per rank (pJ) (Joule)
system.mem_ctrls.dram.rank0.totalEnergy    6798855975                       # Total energy per rank (pJ) (Joule)
system.mem_ctrls.dram.rank0.averagePower   476.024035                       # Core power per rank (mW) (Watt)
system.mem_ctrls.dram.rank0.totalIdleTime            0                       # Total Idle time Per DRAM Rank (Tick)
system.mem_ctrls.dram.rank0.pwrStateTime::IDLE  12556711227                       # Time in different power states (Tick)
system.mem_ctrls.dram.rank0.pwrStateTime::REF    476840000                       # Time in different power states (Tick)
system.mem_ctrls.dram.rank0.pwrStateTime::SREF            0                       # Time in different power states (Tick)
system.mem_ctrls.dram.rank0.pwrStateTime::PRE_PDN            0                       # Time in different power states (Tick)
system.mem_ctrls.dram.rank0.pwrStateTime::ACT   1249038451                       # Time in different power states (Tick)
system.mem_ctrls.dram.rank0.pwrStateTime::ACT_PDN            0                       # Time in different power states (Tick)
system.mem_ctrls.dram.rank1.actEnergy         7475580                       # Energy for activate commands per rank (pJ) (Joule)
system.mem_ctrls.dram.rank1.preEnergy         3961980                       # Energy for precharge commands per rank (pJ) (Joule)
system.mem_ctrls.dram.rank1.readEnergy       54449640                       # Energy for read commands per rank (pJ) (Joule)
system.mem_ctrls.dram.rank1.writeEnergy             0                       # Energy for write commands per rank (pJ) (Joule)
system.mem_ctrls.dram.rank1.refreshEnergy 1127249760.000000                       # Energy for refresh commands per rank (pJ) (Joule)
system.mem_ctrls.dram.rank1.actBackEnergy    763224870                       # Energy for active background per rank (pJ) (Joule)
system.mem_ctrls.dram.rank1.preBackEnergy   4841798880                       # Energy for precharge background per rank (pJ) (Joule)
system.mem_ctrls.dram.rank1.actPowerDownEnergy            0                       # Energy for active power-down per rank (pJ) (Joule)
system.mem_ctrls.dram.rank1.prePowerDownEnergy            0                       # Energy for precharge power-down per rank (pJ) (Joule)
system.mem_ctrls.dram.rank1.selfRefreshEnergy            0                       # Energy for self refresh per rank (pJ) (Joule)
system.mem_ctrls.dram.rank1.totalEnergy    6798160710                       # Total energy per rank (pJ) (Joule)
system.mem_ctrls.dram.rank1.averagePower   475.975356                       # Core power per rank (mW) (Watt)
system.mem_ctrls.dram.rank1.totalIdleTime            0                       # Total Idle time Per DRAM Rank (Tick)
system.mem_ctrls.dram.rank1.pwrStateTime::IDLE  12579510917                       # Time in different power states (Tick)
system.mem_ctrls.dram.rank1.pwrStateTime::REF    476840000                       # Time in different power states (Tick)
system.mem_ctrls.dram.rank1.pwrStateTime::SREF            0                       # Time in different power states (Tick)
system.mem_ctrls.dram.rank1.pwrStateTime::PRE_PDN            0                       # Time in different power states (Tick)
system.mem_ctrls.dram.rank1.pwrStateTime::ACT   1226238761                       # Time in different power states (Tick)
system.mem_ctrls.dram.rank1.pwrStateTime::ACT_PDN            0                       # Time in different power states (Tick)
system.mem_ctrls.power_state.pwrStateResidencyTicks::UNDEFINED  14282589678                       # Cumulative time (in ticks) in various power states (Tick)
system.membus.transDist::ReadResp                2900                       # Transaction distribution (Count)
system.membus.transDist::UpgradeReq             11415                       # Transaction distribution (Count)
system.membus.transDist::SCUpgradeReq            8345                       # Transaction distribution (Count)
system.membus.transDist::SCUpgradeFailReq            1                       # Transaction distribution (Count)
system.membus.transDist::ReadExReq              16026                       # Transaction distribution (Count)
system.membus.transDist::ReadExResp             12227                       # Transaction distribution (Count)
system.membus.transDist::ReadSharedReq           2901                       # Transaction distribution (Count)
system.membus.transDist::InvalidateReq            523                       # Transaction distribution (Count)
system.membus.pktCount_system.l3.mem_side_port::system.mem_ctrls.port        54338                       # Packet count per connected requestor and responder (Count)
system.membus.pktCount::total                   54338                       # Packet count per connected requestor and responder (Count)
system.membus.pktSize_system.l3.mem_side_port::system.mem_ctrls.port       968128                       # Cumulative packet size per connected requestor and responder (Byte)
system.membus.pktSize::total                   968128                       # Cumulative packet size per connected requestor and responder (Byte)
system.membus.snoops                            22135                       # Total snoops (Count)
system.membus.snoopTraffic                          0                       # Total snoop traffic (Byte)
system.membus.snoopFanout::samples              39211                       # Request fanout histogram (Count)
system.membus.snoopFanout::mean                     0                       # Request fanout histogram (Count)
system.membus.snoopFanout::stdev                    0                       # Request fanout histogram (Count)
system.membus.snoopFanout::underflows               0      0.00%      0.00% # Request fanout histogram (Count)
system.membus.snoopFanout::0                    39211    100.00%    100.00% # Request fanout histogram (Count)
system.membus.snoopFanout::1                        0      0.00%    100.00% # Request fanout histogram (Count)
system.membus.snoopFanout::overflows                0      0.00%    100.00% # Request fanout histogram (Count)
system.membus.snoopFanout::min_value                0                       # Request fanout histogram (Count)
system.membus.snoopFanout::max_value                0                       # Request fanout histogram (Count)
system.membus.snoopFanout::total                39211                       # Request fanout histogram (Count)
system.membus.power_state.pwrStateResidencyTicks::UNDEFINED  14282589678                       # Cumulative time (in ticks) in various power states (Tick)
system.membus.reqLayer0.occupancy            24547646                       # Layer occupancy (ticks) (Tick)
system.membus.reqLayer0.utilization               0.0                       # Layer utilization (Ratio)
system.membus.respLayer1.occupancy           79246267                       # Layer occupancy (ticks) (Tick)
system.membus.respLayer1.utilization              0.0                       # Layer utilization (Ratio)
system.membus.snoop_filter.totRequests          39211                       # Total number of requests made to the snoop filter. (Count)
system.membus.snoop_filter.hitSingleRequests        23612                       # Number of requests hitting in the snoop filter with a single holder of the requested data. (Count)
system.membus.snoop_filter.hitMultiRequests            0                       # Number of requests hitting in the snoop filter with multiple (>1) holders of the requested data. (Count)
system.membus.snoop_filter.totSnoops                0                       # Total number of snoops made to the snoop filter. (Count)
system.membus.snoop_filter.hitSingleSnoops            0                       # Number of snoops hitting in the snoop filter with a single holder of the requested data. (Count)
system.membus.snoop_filter.hitMultiSnoops            0                       # Number of snoops hitting in the snoop filter with multiple (>1) holders of the requested data. (Count)
system.tollcbus.transDist::ReadResp             42599                       # Transaction distribution (Count)
system.tollcbus.transDist::UpgradeReq           28249                       # Transaction distribution (Count)
system.tollcbus.transDist::SCUpgradeReq          9416                       # Transaction distribution (Count)
system.tollcbus.transDist::UpgradeResp          37665                       # Transaction distribution (Count)
system.tollcbus.transDist::SCUpgradeFailReq          101                       # Transaction distribution (Count)
system.tollcbus.transDist::UpgradeFailResp          101                       # Transaction distribution (Count)
system.tollcbus.transDist::ReadExReq            17838                       # Transaction distribution (Count)
system.tollcbus.transDist::ReadExResp           17838                       # Transaction distribution (Count)
system.tollcbus.transDist::ReadSharedReq        42600                       # Transaction distribution (Count)
system.tollcbus.transDist::InvalidateReq          577                       # Transaction distribution (Count)
system.tollcbus.transDist::InvalidateResp          577                       # Transaction distribution (Count)
system.tollcbus.pktCount_system.cpu0.l2.mem_side_port::system.l3.cpu_side_port        73331                       # Packet count per connected requestor and responder (Count)
system.tollcbus.pktCount_system.cpu1.l2.mem_side_port::system.l3.cpu_side_port        61108                       # Packet count per connected requestor and responder (Count)
system.tollcbus.pktCount::total                134439                       # Packet count per connected requestor and responder (Count)
system.tollcbus.pktSize_system.cpu0.l2.mem_side_port::system.l3.cpu_side_port       723712                       # Cumulative packet size per connected requestor and responder (Byte)
system.tollcbus.pktSize_system.cpu1.l2.mem_side_port::system.l3.cpu_side_port       284480                       # Cumulative packet size per connected requestor and responder (Byte)
system.tollcbus.pktSize::total                1008192                       # Cumulative packet size per connected requestor and responder (Byte)
system.tollcbus.snoops                          63122                       # Total snoops (Count)
system.tollcbus.snoopTraffic                  2866240                       # Total snoop traffic (Byte)
system.tollcbus.snoopFanout::samples            98781                       # Request fanout histogram (Count)
system.tollcbus.snoopFanout::mean            0.842085                       # Request fanout histogram (Count)
system.tollcbus.snoopFanout::stdev           0.364663                       # Request fanout histogram (Count)
system.tollcbus.snoopFanout::underflows             0      0.00%      0.00% # Request fanout histogram (Count)
system.tollcbus.snoopFanout::0                  15599     15.79%     15.79% # Request fanout histogram (Count)
system.tollcbus.snoopFanout::1                  83182     84.21%    100.00% # Request fanout histogram (Count)
system.tollcbus.snoopFanout::2                      0      0.00%    100.00% # Request fanout histogram (Count)
system.tollcbus.snoopFanout::overflows              0      0.00%    100.00% # Request fanout histogram (Count)
system.tollcbus.snoopFanout::min_value              0                       # Request fanout histogram (Count)
system.tollcbus.snoopFanout::max_value              1                       # Request fanout histogram (Count)
system.tollcbus.snoopFanout::total              98781                       # Request fanout histogram (Count)
system.tollcbus.power_state.pwrStateResidencyTicks::UNDEFINED  14282589678                       # Cumulative time (in ticks) in various power states (Tick)
system.tollcbus.reqLayer0.occupancy          35281547                       # Layer occupancy (ticks) (Tick)
system.tollcbus.reqLayer0.utilization             0.0                       # Layer utilization (Ratio)
system.tollcbus.respLayer0.occupancy         41686842                       # Layer occupancy (ticks) (Tick)
system.tollcbus.respLayer0.utilization            0.0                       # Layer utilization (Ratio)
system.tollcbus.respLayer1.occupancy         36815575                       # Layer occupancy (ticks) (Tick)
system.tollcbus.respLayer1.utilization            0.0                       # Layer utilization (Ratio)
system.tollcbus.snoop_filter.totRequests        98781                       # Total number of requests made to the snoop filter. (Count)
system.tollcbus.snoop_filter.hitSingleRequests        27973                       # Number of requests hitting in the snoop filter with a single holder of the requested data. (Count)
system.tollcbus.snoop_filter.hitMultiRequests        55209                       # Number of requests hitting in the snoop filter with multiple (>1) holders of the requested data. (Count)
system.tollcbus.snoop_filter.totSnoops              0                       # Total number of snoops made to the snoop filter. (Count)
system.tollcbus.snoop_filter.hitSingleSnoops            0                       # Number of snoops hitting in the snoop filter with a single holder of the requested data. (Count)
system.tollcbus.snoop_filter.hitMultiSnoops            0                       # Number of snoops hitting in the snoop filter with multiple (>1) holders of the requested data. (Count)
system.voltage_domain.voltage                       1                       # Voltage in Volts (Volt)
system.workload.inst.arm                            0                       # number of arm instructions executed (Count)
system.workload.inst.quiesce                        0                       # number of quiesce instructions executed (Count)

---------- End Simulation Statistics   ----------
