
---------- Begin Simulation Statistics ----------
simSeconds                                   0.065845                       # Number of seconds simulated (Second)
simTicks                                  65845084998                       # Number of ticks simulated (Tick)
finalTick                                 65845084998                       # Number of ticks from beginning of simulation (restored from checkpoints and never reset) (Tick)
simFreq                                  1000000000000                       # The number of ticks per simulated second ((Tick/Second))
hostSeconds                                   1407.55                       # Real time elapsed on the host (Second)
hostTickRate                                 46779946                       # The number of ticks simulated per host second (ticks/s) ((Tick/Second))
hostMemory                                     784852                       # Number of bytes of host memory used (Byte)
simInsts                                    430066556                       # Number of instructions simulated (Count)
simOps                                      647121143                       # Number of ops (including micro ops) simulated (Count)
hostInstRate                                   305543                       # Simulator instruction rate (inst/s) ((Count/Second))
hostOpRate                                     459750                       # Simulator op (including micro ops) rate (op/s) ((Count/Second))
system.clk_domain.clock                          1000                       # Clock period in ticks (Tick)
system.cpu0.numCycles                       178395120                       # Number of cpu cycles simulated (Cycle)
system.cpu0.numWorkItemsStarted                     0                       # Number of work items this cpu started (Count)
system.cpu0.numWorkItemsCompleted                   0                       # Number of work items this cpu completed (Count)
system.cpu0.instsAdded                      390142931                       # Number of instructions added to the IQ (excludes non-spec) (Count)
system.cpu0.nonSpecInstsAdded                   12117                       # Number of non-speculative instructions added to the IQ (Count)
system.cpu0.instsIssued                     383637801                       # Number of instructions issued (Count)
system.cpu0.squashedInstsIssued                 62080                       # Number of squashed instructions issued (Count)
system.cpu0.squashedInstsExamined            19905354                       # Number of squashed instructions iterated over during squash; mainly for profiling (Count)
system.cpu0.squashedOperandsExamined         36414124                       # Number of squashed operands that are examined and possibly removed from graph (Count)
system.cpu0.squashedNonSpecRemoved               4908                       # Number of squashed non-spec instructions that were removed (Count)
system.cpu0.numIssuedDist::samples          178087407                       # Number of insts issued each cycle (Count)
system.cpu0.numIssuedDist::mean              2.154211                       # Number of insts issued each cycle (Count)
system.cpu0.numIssuedDist::stdev             2.533906                       # Number of insts issued each cycle (Count)
system.cpu0.numIssuedDist::underflows               0      0.00%      0.00% # Number of insts issued each cycle (Count)
system.cpu0.numIssuedDist::0                 83597808     46.94%     46.94% # Number of insts issued each cycle (Count)
system.cpu0.numIssuedDist::1                 12286560      6.90%     53.84% # Number of insts issued each cycle (Count)
system.cpu0.numIssuedDist::2                 13082004      7.35%     61.19% # Number of insts issued each cycle (Count)
system.cpu0.numIssuedDist::3                 16628496      9.34%     70.52% # Number of insts issued each cycle (Count)
system.cpu0.numIssuedDist::4                 13246468      7.44%     77.96% # Number of insts issued each cycle (Count)
system.cpu0.numIssuedDist::5                 14214869      7.98%     85.94% # Number of insts issued each cycle (Count)
system.cpu0.numIssuedDist::6                 10708414      6.01%     91.96% # Number of insts issued each cycle (Count)
system.cpu0.numIssuedDist::7                  7591260      4.26%     96.22% # Number of insts issued each cycle (Count)
system.cpu0.numIssuedDist::8                  6731528      3.78%    100.00% # Number of insts issued each cycle (Count)
system.cpu0.numIssuedDist::overflows                0      0.00%    100.00% # Number of insts issued each cycle (Count)
system.cpu0.numIssuedDist::min_value                0                       # Number of insts issued each cycle (Count)
system.cpu0.numIssuedDist::max_value                8                       # Number of insts issued each cycle (Count)
system.cpu0.numIssuedDist::total            178087407                       # Number of insts issued each cycle (Count)
system.cpu0.statFuBusy::No_OpClass                  0      0.00%      0.00% # attempts to use FU when none available (Count)
system.cpu0.statFuBusy::IntAlu                1448743     73.14%     73.14% # attempts to use FU when none available (Count)
system.cpu0.statFuBusy::IntMult                     0      0.00%     73.14% # attempts to use FU when none available (Count)
system.cpu0.statFuBusy::IntDiv                      0      0.00%     73.14% # attempts to use FU when none available (Count)
system.cpu0.statFuBusy::FloatAdd                    0      0.00%     73.14% # attempts to use FU when none available (Count)
system.cpu0.statFuBusy::FloatCmp                    0      0.00%     73.14% # attempts to use FU when none available (Count)
system.cpu0.statFuBusy::FloatCvt                    0      0.00%     73.14% # attempts to use FU when none available (Count)
system.cpu0.statFuBusy::FloatMult                   0      0.00%     73.14% # attempts to use FU when none available (Count)
system.cpu0.statFuBusy::FloatMultAcc                0      0.00%     73.14% # attempts to use FU when none available (Count)
system.cpu0.statFuBusy::FloatDiv                    0      0.00%     73.14% # attempts to use FU when none available (Count)
system.cpu0.statFuBusy::FloatMisc                   0      0.00%     73.14% # attempts to use FU when none available (Count)
system.cpu0.statFuBusy::FloatSqrt                   0      0.00%     73.14% # attempts to use FU when none available (Count)
system.cpu0.statFuBusy::SimdAdd                     0      0.00%     73.14% # attempts to use FU when none available (Count)
system.cpu0.statFuBusy::SimdAddAcc                  0      0.00%     73.14% # attempts to use FU when none available (Count)
system.cpu0.statFuBusy::SimdAlu                  6698      0.34%     73.47% # attempts to use FU when none available (Count)
system.cpu0.statFuBusy::SimdCmp                     0      0.00%     73.47% # attempts to use FU when none available (Count)
system.cpu0.statFuBusy::SimdCvt                   148      0.01%     73.48% # attempts to use FU when none available (Count)
system.cpu0.statFuBusy::SimdMisc                 1084      0.05%     73.54% # attempts to use FU when none available (Count)
system.cpu0.statFuBusy::SimdMult                    0      0.00%     73.54% # attempts to use FU when none available (Count)
system.cpu0.statFuBusy::SimdMultAcc                 0      0.00%     73.54% # attempts to use FU when none available (Count)
system.cpu0.statFuBusy::SimdShift                   0      0.00%     73.54% # attempts to use FU when none available (Count)
system.cpu0.statFuBusy::SimdShiftAcc                0      0.00%     73.54% # attempts to use FU when none available (Count)
system.cpu0.statFuBusy::SimdDiv                     0      0.00%     73.54% # attempts to use FU when none available (Count)
system.cpu0.statFuBusy::SimdSqrt                    0      0.00%     73.54% # attempts to use FU when none available (Count)
system.cpu0.statFuBusy::SimdFloatAdd               36      0.00%     73.54% # attempts to use FU when none available (Count)
system.cpu0.statFuBusy::SimdFloatAlu                0      0.00%     73.54% # attempts to use FU when none available (Count)
system.cpu0.statFuBusy::SimdFloatCmp                0      0.00%     73.54% # attempts to use FU when none available (Count)
system.cpu0.statFuBusy::SimdFloatCvt                0      0.00%     73.54% # attempts to use FU when none available (Count)
system.cpu0.statFuBusy::SimdFloatDiv                2      0.00%     73.54% # attempts to use FU when none available (Count)
system.cpu0.statFuBusy::SimdFloatMisc               0      0.00%     73.54% # attempts to use FU when none available (Count)
system.cpu0.statFuBusy::SimdFloatMult          262588     13.26%     86.79% # attempts to use FU when none available (Count)
system.cpu0.statFuBusy::SimdFloatMultAcc            0      0.00%     86.79% # attempts to use FU when none available (Count)
system.cpu0.statFuBusy::SimdFloatSqrt               0      0.00%     86.79% # attempts to use FU when none available (Count)
system.cpu0.statFuBusy::SimdReduceAdd               0      0.00%     86.79% # attempts to use FU when none available (Count)
system.cpu0.statFuBusy::SimdReduceAlu               0      0.00%     86.79% # attempts to use FU when none available (Count)
system.cpu0.statFuBusy::SimdReduceCmp               0      0.00%     86.79% # attempts to use FU when none available (Count)
system.cpu0.statFuBusy::SimdFloatReduceAdd            0      0.00%     86.79% # attempts to use FU when none available (Count)
system.cpu0.statFuBusy::SimdFloatReduceCmp            0      0.00%     86.79% # attempts to use FU when none available (Count)
system.cpu0.statFuBusy::SimdAes                     0      0.00%     86.79% # attempts to use FU when none available (Count)
system.cpu0.statFuBusy::SimdAesMix                  0      0.00%     86.79% # attempts to use FU when none available (Count)
system.cpu0.statFuBusy::SimdSha1Hash                0      0.00%     86.79% # attempts to use FU when none available (Count)
system.cpu0.statFuBusy::SimdSha1Hash2               0      0.00%     86.79% # attempts to use FU when none available (Count)
system.cpu0.statFuBusy::SimdSha256Hash              0      0.00%     86.79% # attempts to use FU when none available (Count)
system.cpu0.statFuBusy::SimdSha256Hash2             0      0.00%     86.79% # attempts to use FU when none available (Count)
system.cpu0.statFuBusy::SimdShaSigma2               0      0.00%     86.79% # attempts to use FU when none available (Count)
system.cpu0.statFuBusy::SimdShaSigma3               0      0.00%     86.79% # attempts to use FU when none available (Count)
system.cpu0.statFuBusy::SimdPredAlu                 0      0.00%     86.79% # attempts to use FU when none available (Count)
system.cpu0.statFuBusy::MemRead                125397      6.33%     93.13% # attempts to use FU when none available (Count)
system.cpu0.statFuBusy::MemWrite                52890      2.67%     95.80% # attempts to use FU when none available (Count)
system.cpu0.statFuBusy::FloatMemRead            65907      3.33%     99.12% # attempts to use FU when none available (Count)
system.cpu0.statFuBusy::FloatMemWrite           17383      0.88%    100.00% # attempts to use FU when none available (Count)
system.cpu0.statFuBusy::IprAccess                   0      0.00%    100.00% # attempts to use FU when none available (Count)
system.cpu0.statFuBusy::InstPrefetch                0      0.00%    100.00% # attempts to use FU when none available (Count)
system.cpu0.statIssuedInstType_0::No_OpClass       505892      0.13%      0.13% # Number of instructions issued per FU type, per thread (Count)
system.cpu0.statIssuedInstType_0::IntAlu    183160487     47.74%     47.87% # Number of instructions issued per FU type, per thread (Count)
system.cpu0.statIssuedInstType_0::IntMult       442159      0.12%     47.99% # Number of instructions issued per FU type, per thread (Count)
system.cpu0.statIssuedInstType_0::IntDiv       138109      0.04%     48.03% # Number of instructions issued per FU type, per thread (Count)
system.cpu0.statIssuedInstType_0::FloatAdd     34335032      8.95%     56.98% # Number of instructions issued per FU type, per thread (Count)
system.cpu0.statIssuedInstType_0::FloatCmp            0      0.00%     56.98% # Number of instructions issued per FU type, per thread (Count)
system.cpu0.statIssuedInstType_0::FloatCvt            0      0.00%     56.98% # Number of instructions issued per FU type, per thread (Count)
system.cpu0.statIssuedInstType_0::FloatMult            0      0.00%     56.98% # Number of instructions issued per FU type, per thread (Count)
system.cpu0.statIssuedInstType_0::FloatMultAcc            0      0.00%     56.98% # Number of instructions issued per FU type, per thread (Count)
system.cpu0.statIssuedInstType_0::FloatDiv            0      0.00%     56.98% # Number of instructions issued per FU type, per thread (Count)
system.cpu0.statIssuedInstType_0::FloatMisc            0      0.00%     56.98% # Number of instructions issued per FU type, per thread (Count)
system.cpu0.statIssuedInstType_0::FloatSqrt            0      0.00%     56.98% # Number of instructions issued per FU type, per thread (Count)
system.cpu0.statIssuedInstType_0::SimdAdd          378      0.00%     56.98% # Number of instructions issued per FU type, per thread (Count)
system.cpu0.statIssuedInstType_0::SimdAddAcc            0      0.00%     56.98% # Number of instructions issued per FU type, per thread (Count)
system.cpu0.statIssuedInstType_0::SimdAlu       228993      0.06%     57.04% # Number of instructions issued per FU type, per thread (Count)
system.cpu0.statIssuedInstType_0::SimdCmp            0      0.00%     57.04% # Number of instructions issued per FU type, per thread (Count)
system.cpu0.statIssuedInstType_0::SimdCvt        51092      0.01%     57.05% # Number of instructions issued per FU type, per thread (Count)
system.cpu0.statIssuedInstType_0::SimdMisc       160619      0.04%     57.09% # Number of instructions issued per FU type, per thread (Count)
system.cpu0.statIssuedInstType_0::SimdMult            0      0.00%     57.09% # Number of instructions issued per FU type, per thread (Count)
system.cpu0.statIssuedInstType_0::SimdMultAcc            0      0.00%     57.09% # Number of instructions issued per FU type, per thread (Count)
system.cpu0.statIssuedInstType_0::SimdShift          186      0.00%     57.09% # Number of instructions issued per FU type, per thread (Count)
system.cpu0.statIssuedInstType_0::SimdShiftAcc            0      0.00%     57.09% # Number of instructions issued per FU type, per thread (Count)
system.cpu0.statIssuedInstType_0::SimdDiv            0      0.00%     57.09% # Number of instructions issued per FU type, per thread (Count)
system.cpu0.statIssuedInstType_0::SimdSqrt            0      0.00%     57.09% # Number of instructions issued per FU type, per thread (Count)
system.cpu0.statIssuedInstType_0::SimdFloatAdd     41999534     10.95%     68.04% # Number of instructions issued per FU type, per thread (Count)
system.cpu0.statIssuedInstType_0::SimdFloatAlu            0      0.00%     68.04% # Number of instructions issued per FU type, per thread (Count)
system.cpu0.statIssuedInstType_0::SimdFloatCmp            2      0.00%     68.04% # Number of instructions issued per FU type, per thread (Count)
system.cpu0.statIssuedInstType_0::SimdFloatCvt       113423      0.03%     68.07% # Number of instructions issued per FU type, per thread (Count)
system.cpu0.statIssuedInstType_0::SimdFloatDiv        58287      0.02%     68.08% # Number of instructions issued per FU type, per thread (Count)
system.cpu0.statIssuedInstType_0::SimdFloatMisc            0      0.00%     68.08% # Number of instructions issued per FU type, per thread (Count)
system.cpu0.statIssuedInstType_0::SimdFloatMult     41509668     10.82%     78.90% # Number of instructions issued per FU type, per thread (Count)
system.cpu0.statIssuedInstType_0::SimdFloatMultAcc            0      0.00%     78.90% # Number of instructions issued per FU type, per thread (Count)
system.cpu0.statIssuedInstType_0::SimdFloatSqrt         1968      0.00%     78.90% # Number of instructions issued per FU type, per thread (Count)
system.cpu0.statIssuedInstType_0::SimdReduceAdd            0      0.00%     78.90% # Number of instructions issued per FU type, per thread (Count)
system.cpu0.statIssuedInstType_0::SimdReduceAlu            0      0.00%     78.90% # Number of instructions issued per FU type, per thread (Count)
system.cpu0.statIssuedInstType_0::SimdReduceCmp            0      0.00%     78.90% # Number of instructions issued per FU type, per thread (Count)
system.cpu0.statIssuedInstType_0::SimdFloatReduceAdd            0      0.00%     78.90% # Number of instructions issued per FU type, per thread (Count)
system.cpu0.statIssuedInstType_0::SimdFloatReduceCmp            0      0.00%     78.90% # Number of instructions issued per FU type, per thread (Count)
system.cpu0.statIssuedInstType_0::SimdAes            0      0.00%     78.90% # Number of instructions issued per FU type, per thread (Count)
system.cpu0.statIssuedInstType_0::SimdAesMix            0      0.00%     78.90% # Number of instructions issued per FU type, per thread (Count)
system.cpu0.statIssuedInstType_0::SimdSha1Hash            0      0.00%     78.90% # Number of instructions issued per FU type, per thread (Count)
system.cpu0.statIssuedInstType_0::SimdSha1Hash2            0      0.00%     78.90% # Number of instructions issued per FU type, per thread (Count)
system.cpu0.statIssuedInstType_0::SimdSha256Hash            0      0.00%     78.90% # Number of instructions issued per FU type, per thread (Count)
system.cpu0.statIssuedInstType_0::SimdSha256Hash2            0      0.00%     78.90% # Number of instructions issued per FU type, per thread (Count)
system.cpu0.statIssuedInstType_0::SimdShaSigma2            0      0.00%     78.90% # Number of instructions issued per FU type, per thread (Count)
system.cpu0.statIssuedInstType_0::SimdShaSigma3            0      0.00%     78.90% # Number of instructions issued per FU type, per thread (Count)
system.cpu0.statIssuedInstType_0::SimdPredAlu            0      0.00%     78.90% # Number of instructions issued per FU type, per thread (Count)
system.cpu0.statIssuedInstType_0::MemRead     22484577      5.86%     84.76% # Number of instructions issued per FU type, per thread (Count)
system.cpu0.statIssuedInstType_0::MemWrite      9025624      2.35%     87.12% # Number of instructions issued per FU type, per thread (Count)
system.cpu0.statIssuedInstType_0::FloatMemRead     36631658      9.55%     96.67% # Number of instructions issued per FU type, per thread (Count)
system.cpu0.statIssuedInstType_0::FloatMemWrite     12790113      3.33%    100.00% # Number of instructions issued per FU type, per thread (Count)
system.cpu0.statIssuedInstType_0::IprAccess            0      0.00%    100.00% # Number of instructions issued per FU type, per thread (Count)
system.cpu0.statIssuedInstType_0::InstPrefetch            0      0.00%    100.00% # Number of instructions issued per FU type, per thread (Count)
system.cpu0.statIssuedInstType_0::total     383637801                       # Number of instructions issued per FU type, per thread (Count)
system.cpu0.issueRate                        2.150495                       # Inst issue rate ((Count/Cycle))
system.cpu0.fuBusy                            1980876                       # FU busy when requested (Count)
system.cpu0.fuBusyRate                       0.005163                       # FU busy rate (busy events/executed inst) ((Count/Count))
system.cpu0.intInstQueueReads               533904262                       # Number of integer instruction queue reads (Count)
system.cpu0.intInstQueueWrites              201481936                       # Number of integer instruction queue writes (Count)
system.cpu0.intInstQueueWakeupAccesses      175659078                       # Number of integer instruction queue wakeup accesses (Count)
system.cpu0.fpInstQueueReads                413501703                       # Number of floating instruction queue reads (Count)
system.cpu0.fpInstQueueWrites               208586556                       # Number of floating instruction queue writes (Count)
system.cpu0.fpInstQueueWakeupAccesses       206291897                       # Number of floating instruction queue wakeup accesses (Count)
system.cpu0.vecInstQueueReads                       0                       # Number of vector instruction queue reads (Count)
system.cpu0.vecInstQueueWrites                      0                       # Number of vector instruction queue writes (Count)
system.cpu0.vecInstQueueWakeupAccesses              0                       # Number of vector instruction queue wakeup accesses (Count)
system.cpu0.intAluAccesses                  178185375                       # Number of integer alu accesses (Count)
system.cpu0.fpAluAccesses                   206927410                       # Number of floating point alu accesses (Count)
system.cpu0.vecAluAccesses                          0                       # Number of vector alu accesses (Count)
system.cpu0.numInsts                        382780644                       # Number of executed instructions (Count)
system.cpu0.numLoadInsts                     58894100                       # Number of load instructions executed (Count)
system.cpu0.numSquashedInsts                   857157                       # Number of squashed instructions skipped in execute (Count)
system.cpu0.numSwp                                  0                       # Number of swp insts executed (Count)
system.cpu0.numNop                                  0                       # Number of nop insts executed (Count)
system.cpu0.numRefs                          80671687                       # Number of memory reference insts executed (Count)
system.cpu0.numBranches                      19962932                       # Number of branches executed (Count)
system.cpu0.numStoreInsts                    21777587                       # Number of stores executed (Count)
system.cpu0.numRate                          2.145690                       # Inst execution rate ((Count/Cycle))
system.cpu0.timesIdled                           1758                       # Number of times that the entire CPU went into an idle state and unscheduled itself (Count)
system.cpu0.idleCycles                         307713                       # Total number of cycles that the CPU has spent unscheduled due to idling (Cycle)
system.cpu0.quiesceCycles                     6044895                       # Total number of cycles that CPU has spent quiesced or waiting for an interrupt (Cycle)
system.cpu0.committedInsts                  240582047                       # Number of Instructions Simulated (Count)
system.cpu0.committedOps                    370249688                       # Number of Ops (including micro ops) Simulated (Count)
system.cpu0.cpi                              0.741515                       # CPI: Cycles Per Instruction ((Cycle/Count))
system.cpu0.totalCpi                         0.741515                       # CPI: Total CPI of All Threads ((Cycle/Count))
system.cpu0.ipc                              1.348591                       # IPC: Instructions Per Cycle ((Count/Cycle))
system.cpu0.totalIpc                         1.348591                       # IPC: Total IPC of All Threads ((Count/Cycle))
system.cpu0.intRegfileReads                 290948464                       # Number of integer regfile reads (Count)
system.cpu0.intRegfileWrites                127987048                       # Number of integer regfile writes (Count)
system.cpu0.fpRegfileReads                  341852299                       # Number of floating regfile reads (Count)
system.cpu0.fpRegfileWrites                 193506905                       # Number of floating regfile writes (Count)
system.cpu0.ccRegfileReads                   97642543                       # number of cc regfile reads (Count)
system.cpu0.ccRegfileWrites                  82020263                       # number of cc regfile writes (Count)
system.cpu0.miscRegfileReads                126330869                       # number of misc regfile reads (Count)
system.cpu0.MemDepUnit__0.insertedLoads      60507412                       # Number of loads inserted to the mem dependence unit. (Count)
system.cpu0.MemDepUnit__0.insertedStores     22686135                       # Number of stores inserted to the mem dependence unit. (Count)
system.cpu0.MemDepUnit__0.conflictingLoads     14301038                       # Number of conflicting loads. (Count)
system.cpu0.MemDepUnit__0.conflictingStores     12034107                       # Number of conflicting stores. (Count)
system.cpu0.MemDepUnit__1.insertedLoads             0                       # Number of loads inserted to the mem dependence unit. (Count)
system.cpu0.MemDepUnit__1.insertedStores            0                       # Number of stores inserted to the mem dependence unit. (Count)
system.cpu0.MemDepUnit__1.conflictingLoads            0                       # Number of conflicting loads. (Count)
system.cpu0.MemDepUnit__1.conflictingStores            0                       # Number of conflicting stores. (Count)
system.cpu0.MemDepUnit__2.insertedLoads             0                       # Number of loads inserted to the mem dependence unit. (Count)
system.cpu0.MemDepUnit__2.insertedStores            0                       # Number of stores inserted to the mem dependence unit. (Count)
system.cpu0.MemDepUnit__2.conflictingLoads            0                       # Number of conflicting loads. (Count)
system.cpu0.MemDepUnit__2.conflictingStores            0                       # Number of conflicting stores. (Count)
system.cpu0.MemDepUnit__3.insertedLoads             0                       # Number of loads inserted to the mem dependence unit. (Count)
system.cpu0.MemDepUnit__3.insertedStores            0                       # Number of stores inserted to the mem dependence unit. (Count)
system.cpu0.MemDepUnit__3.conflictingLoads            0                       # Number of conflicting loads. (Count)
system.cpu0.MemDepUnit__3.conflictingStores            0                       # Number of conflicting stores. (Count)
system.cpu0.branchPred.lookups               22540717                       # Number of BP lookups (Count)
system.cpu0.branchPred.condPredicted         21338557                       # Number of conditional branches predicted (Count)
system.cpu0.branchPred.condIncorrect           352465                       # Number of conditional branches incorrect (Count)
system.cpu0.branchPred.BTBLookups            16030735                       # Number of BTB lookups (Count)
system.cpu0.branchPred.BTBHits               16021006                       # Number of BTB hits (Count)
system.cpu0.branchPred.BTBHitRatio           0.999393                       # BTB Hit Ratio (Ratio)
system.cpu0.branchPred.RASUsed                 368822                       # Number of times the RAS was used to get a target. (Count)
system.cpu0.branchPred.RASIncorrect                24                       # Number of incorrect RAS predictions. (Count)
system.cpu0.branchPred.indirectLookups          13162                       # Number of indirect predictor lookups. (Count)
system.cpu0.branchPred.indirectHits              9241                       # Number of indirect target hits. (Count)
system.cpu0.branchPred.indirectMisses            3921                       # Number of indirect misses. (Count)
system.cpu0.branchPred.indirectMispredicted          396                       # Number of mispredicted indirect branches. (Count)
system.cpu0.commit.commitSquashedInsts       19793609                       # The number of squashed insts skipped by commit (Count)
system.cpu0.commit.commitNonSpecStalls           7209                       # The number of times commit has been forced to stall to communicate backwards (Count)
system.cpu0.commit.branchMispredicts           346869                       # The number of times a branch was mispredicted (Count)
system.cpu0.commit.numCommittedDist::samples    175388530                       # Number of insts commited each cycle (Count)
system.cpu0.commit.numCommittedDist::mean     2.111026                       # Number of insts commited each cycle (Count)
system.cpu0.commit.numCommittedDist::stdev     3.064726                       # Number of insts commited each cycle (Count)
system.cpu0.commit.numCommittedDist::underflows            0      0.00%      0.00% # Number of insts commited each cycle (Count)
system.cpu0.commit.numCommittedDist::0      103009913     58.73%     58.73% # Number of insts commited each cycle (Count)
system.cpu0.commit.numCommittedDist::1        9125449      5.20%     63.94% # Number of insts commited each cycle (Count)
system.cpu0.commit.numCommittedDist::2       10462125      5.97%     69.90% # Number of insts commited each cycle (Count)
system.cpu0.commit.numCommittedDist::3        7177916      4.09%     73.99% # Number of insts commited each cycle (Count)
system.cpu0.commit.numCommittedDist::4        2409398      1.37%     75.37% # Number of insts commited each cycle (Count)
system.cpu0.commit.numCommittedDist::5        7975815      4.55%     79.91% # Number of insts commited each cycle (Count)
system.cpu0.commit.numCommittedDist::6        5474827      3.12%     83.04% # Number of insts commited each cycle (Count)
system.cpu0.commit.numCommittedDist::7        1724084      0.98%     84.02% # Number of insts commited each cycle (Count)
system.cpu0.commit.numCommittedDist::8       28029003     15.98%    100.00% # Number of insts commited each cycle (Count)
system.cpu0.commit.numCommittedDist::overflows            0      0.00%    100.00% # Number of insts commited each cycle (Count)
system.cpu0.commit.numCommittedDist::min_value            0                       # Number of insts commited each cycle (Count)
system.cpu0.commit.numCommittedDist::max_value            8                       # Number of insts commited each cycle (Count)
system.cpu0.commit.numCommittedDist::total    175388530                       # Number of insts commited each cycle (Count)
system.cpu0.commit.instsCommitted           240582047                       # Number of instructions committed (Count)
system.cpu0.commit.opsCommitted             370249688                       # Number of ops (including micro ops) committed (Count)
system.cpu0.commit.memRefs                   77979841                       # Number of memory references committed (Count)
system.cpu0.commit.loads                     56787640                       # Number of loads committed (Count)
system.cpu0.commit.amos                             0                       # Number of atomic instructions committed (Count)
system.cpu0.commit.membars                       4804                       # Number of memory barriers committed (Count)
system.cpu0.commit.branches                  19027163                       # Number of branches committed (Count)
system.cpu0.commit.vectorInstructions               0                       # Number of committed Vector instructions. (Count)
system.cpu0.commit.floating                 205554048                       # Number of committed floating point instructions. (Count)
system.cpu0.commit.integer                  213235655                       # Number of committed integer instructions. (Count)
system.cpu0.commit.functionCalls               336873                       # Number of function calls committed. (Count)
system.cpu0.commit.committedInstType_0::No_OpClass       378204      0.10%      0.10% # Class of committed instruction (Count)
system.cpu0.commit.committedInstType_0::IntAlu    173228736     46.79%     46.89% # Class of committed instruction (Count)
system.cpu0.commit.committedInstType_0::IntMult       434723      0.12%     47.01% # Class of committed instruction (Count)
system.cpu0.commit.committedInstType_0::IntDiv       137296      0.04%     47.04% # Class of committed instruction (Count)
system.cpu0.commit.committedInstType_0::FloatAdd     34066384      9.20%     56.24% # Class of committed instruction (Count)
system.cpu0.commit.committedInstType_0::FloatCmp            0      0.00%     56.24% # Class of committed instruction (Count)
system.cpu0.commit.committedInstType_0::FloatCvt            0      0.00%     56.24% # Class of committed instruction (Count)
system.cpu0.commit.committedInstType_0::FloatMult            0      0.00%     56.24% # Class of committed instruction (Count)
system.cpu0.commit.committedInstType_0::FloatMultAcc            0      0.00%     56.24% # Class of committed instruction (Count)
system.cpu0.commit.committedInstType_0::FloatDiv            0      0.00%     56.24% # Class of committed instruction (Count)
system.cpu0.commit.committedInstType_0::FloatMisc            0      0.00%     56.24% # Class of committed instruction (Count)
system.cpu0.commit.committedInstType_0::FloatSqrt            0      0.00%     56.24% # Class of committed instruction (Count)
system.cpu0.commit.committedInstType_0::SimdAdd          374      0.00%     56.24% # Class of committed instruction (Count)
system.cpu0.commit.committedInstType_0::SimdAddAcc            0      0.00%     56.24% # Class of committed instruction (Count)
system.cpu0.commit.committedInstType_0::SimdAlu       212882      0.06%     56.30% # Class of committed instruction (Count)
system.cpu0.commit.committedInstType_0::SimdCmp            0      0.00%     56.30% # Class of committed instruction (Count)
system.cpu0.commit.committedInstType_0::SimdCvt        50184      0.01%     56.32% # Class of committed instruction (Count)
system.cpu0.commit.committedInstType_0::SimdMisc       158246      0.04%     56.36% # Class of committed instruction (Count)
system.cpu0.commit.committedInstType_0::SimdMult            0      0.00%     56.36% # Class of committed instruction (Count)
system.cpu0.commit.committedInstType_0::SimdMultAcc            0      0.00%     56.36% # Class of committed instruction (Count)
system.cpu0.commit.committedInstType_0::SimdShift          186      0.00%     56.36% # Class of committed instruction (Count)
system.cpu0.commit.committedInstType_0::SimdShiftAcc            0      0.00%     56.36% # Class of committed instruction (Count)
system.cpu0.commit.committedInstType_0::SimdDiv            0      0.00%     56.36% # Class of committed instruction (Count)
system.cpu0.commit.committedInstType_0::SimdSqrt            0      0.00%     56.36% # Class of committed instruction (Count)
system.cpu0.commit.committedInstType_0::SimdFloatAdd     41985753     11.34%     67.70% # Class of committed instruction (Count)
system.cpu0.commit.committedInstType_0::SimdFloatAlu            0      0.00%     67.70% # Class of committed instruction (Count)
system.cpu0.commit.committedInstType_0::SimdFloatCmp            2      0.00%     67.70% # Class of committed instruction (Count)
system.cpu0.commit.committedInstType_0::SimdFloatCvt       110170      0.03%     67.73% # Class of committed instruction (Count)
system.cpu0.commit.committedInstType_0::SimdFloatDiv        56109      0.02%     67.74% # Class of committed instruction (Count)
system.cpu0.commit.committedInstType_0::SimdFloatMisc            0      0.00%     67.74% # Class of committed instruction (Count)
system.cpu0.commit.committedInstType_0::SimdFloatMult     41448642     11.19%     78.94% # Class of committed instruction (Count)
system.cpu0.commit.committedInstType_0::SimdFloatMultAcc            0      0.00%     78.94% # Class of committed instruction (Count)
system.cpu0.commit.committedInstType_0::SimdFloatSqrt         1956      0.00%     78.94% # Class of committed instruction (Count)
system.cpu0.commit.committedInstType_0::SimdReduceAdd            0      0.00%     78.94% # Class of committed instruction (Count)
system.cpu0.commit.committedInstType_0::SimdReduceAlu            0      0.00%     78.94% # Class of committed instruction (Count)
system.cpu0.commit.committedInstType_0::SimdReduceCmp            0      0.00%     78.94% # Class of committed instruction (Count)
system.cpu0.commit.committedInstType_0::SimdFloatReduceAdd            0      0.00%     78.94% # Class of committed instruction (Count)
system.cpu0.commit.committedInstType_0::SimdFloatReduceCmp            0      0.00%     78.94% # Class of committed instruction (Count)
system.cpu0.commit.committedInstType_0::SimdAes            0      0.00%     78.94% # Class of committed instruction (Count)
system.cpu0.commit.committedInstType_0::SimdAesMix            0      0.00%     78.94% # Class of committed instruction (Count)
system.cpu0.commit.committedInstType_0::SimdSha1Hash            0      0.00%     78.94% # Class of committed instruction (Count)
system.cpu0.commit.committedInstType_0::SimdSha1Hash2            0      0.00%     78.94% # Class of committed instruction (Count)
system.cpu0.commit.committedInstType_0::SimdSha256Hash            0      0.00%     78.94% # Class of committed instruction (Count)
system.cpu0.commit.committedInstType_0::SimdSha256Hash2            0      0.00%     78.94% # Class of committed instruction (Count)
system.cpu0.commit.committedInstType_0::SimdShaSigma2            0      0.00%     78.94% # Class of committed instruction (Count)
system.cpu0.commit.committedInstType_0::SimdShaSigma3            0      0.00%     78.94% # Class of committed instruction (Count)
system.cpu0.commit.committedInstType_0::SimdPredAlu            0      0.00%     78.94% # Class of committed instruction (Count)
system.cpu0.commit.committedInstType_0::MemRead     20491323      5.53%     84.47% # Class of committed instruction (Count)
system.cpu0.commit.committedInstType_0::MemWrite      8579714      2.32%     86.79% # Class of committed instruction (Count)
system.cpu0.commit.committedInstType_0::FloatMemRead     36296317      9.80%     96.59% # Class of committed instruction (Count)
system.cpu0.commit.committedInstType_0::FloatMemWrite     12612487      3.41%    100.00% # Class of committed instruction (Count)
system.cpu0.commit.committedInstType_0::IprAccess            0      0.00%    100.00% # Class of committed instruction (Count)
system.cpu0.commit.committedInstType_0::InstPrefetch            0      0.00%    100.00% # Class of committed instruction (Count)
system.cpu0.commit.committedInstType_0::total    370249688                       # Class of committed instruction (Count)
system.cpu0.commit.commitEligibleSamples     28029003                       # number cycles where commit BW limit reached (Cycle)
system.cpu0.dcache.demandHits::cpu0.data     74934466                       # number of demand (read+write) hits (Count)
system.cpu0.dcache.demandHits::total         74934466                       # number of demand (read+write) hits (Count)
system.cpu0.dcache.overallHits::cpu0.data     74965842                       # number of overall hits (Count)
system.cpu0.dcache.overallHits::total        74965842                       # number of overall hits (Count)
system.cpu0.dcache.demandMisses::cpu0.data      3036381                       # number of demand (read+write) misses (Count)
system.cpu0.dcache.demandMisses::total        3036381                       # number of demand (read+write) misses (Count)
system.cpu0.dcache.overallMisses::cpu0.data      3037465                       # number of overall misses (Count)
system.cpu0.dcache.overallMisses::total       3037465                       # number of overall misses (Count)
system.cpu0.dcache.demandMissLatency::cpu0.data  99310558046                       # number of demand (read+write) miss ticks (Tick)
system.cpu0.dcache.demandMissLatency::total  99310558046                       # number of demand (read+write) miss ticks (Tick)
system.cpu0.dcache.overallMissLatency::cpu0.data  99310558046                       # number of overall miss ticks (Tick)
system.cpu0.dcache.overallMissLatency::total  99310558046                       # number of overall miss ticks (Tick)
system.cpu0.dcache.demandAccesses::cpu0.data     77970847                       # number of demand (read+write) accesses (Count)
system.cpu0.dcache.demandAccesses::total     77970847                       # number of demand (read+write) accesses (Count)
system.cpu0.dcache.overallAccesses::cpu0.data     78003307                       # number of overall (read+write) accesses (Count)
system.cpu0.dcache.overallAccesses::total     78003307                       # number of overall (read+write) accesses (Count)
system.cpu0.dcache.demandMissRate::cpu0.data     0.038943                       # miss rate for demand accesses (Ratio)
system.cpu0.dcache.demandMissRate::total     0.038943                       # miss rate for demand accesses (Ratio)
system.cpu0.dcache.overallMissRate::cpu0.data     0.038940                       # miss rate for overall accesses (Ratio)
system.cpu0.dcache.overallMissRate::total     0.038940                       # miss rate for overall accesses (Ratio)
system.cpu0.dcache.demandAvgMissLatency::cpu0.data 32706.882979                       # average overall miss latency in ticks ((Tick/Count))
system.cpu0.dcache.demandAvgMissLatency::total 32706.882979                       # average overall miss latency in ticks ((Tick/Count))
system.cpu0.dcache.overallAvgMissLatency::cpu0.data 32695.210660                       # average overall miss latency ((Tick/Count))
system.cpu0.dcache.overallAvgMissLatency::total 32695.210660                       # average overall miss latency ((Tick/Count))
system.cpu0.dcache.blockedCycles::no_mshrs       161795                       # number of cycles access was blocked (Cycle)
system.cpu0.dcache.blockedCycles::no_targets          401                       # number of cycles access was blocked (Cycle)
system.cpu0.dcache.blockedCauses::no_mshrs        12457                       # number of times access was blocked (Count)
system.cpu0.dcache.blockedCauses::no_targets            5                       # number of times access was blocked (Count)
system.cpu0.dcache.avgBlocked::no_mshrs     12.988280                       # average number of cycles each access was blocked ((Cycle/Count))
system.cpu0.dcache.avgBlocked::no_targets    80.200000                       # average number of cycles each access was blocked ((Cycle/Count))
system.cpu0.dcache.writebacks::writebacks      1569595                       # number of writebacks (Count)
system.cpu0.dcache.writebacks::total          1569595                       # number of writebacks (Count)
system.cpu0.dcache.demandMshrHits::cpu0.data      1307154                       # number of demand (read+write) MSHR hits (Count)
system.cpu0.dcache.demandMshrHits::total      1307154                       # number of demand (read+write) MSHR hits (Count)
system.cpu0.dcache.overallMshrHits::cpu0.data      1307154                       # number of overall MSHR hits (Count)
system.cpu0.dcache.overallMshrHits::total      1307154                       # number of overall MSHR hits (Count)
system.cpu0.dcache.demandMshrMisses::cpu0.data      1729227                       # number of demand (read+write) MSHR misses (Count)
system.cpu0.dcache.demandMshrMisses::total      1729227                       # number of demand (read+write) MSHR misses (Count)
system.cpu0.dcache.overallMshrMisses::cpu0.data      1730306                       # number of overall MSHR misses (Count)
system.cpu0.dcache.overallMshrMisses::total      1730306                       # number of overall MSHR misses (Count)
system.cpu0.dcache.demandMshrMissLatency::cpu0.data  46843488631                       # number of demand (read+write) MSHR miss ticks (Tick)
system.cpu0.dcache.demandMshrMissLatency::total  46843488631                       # number of demand (read+write) MSHR miss ticks (Tick)
system.cpu0.dcache.overallMshrMissLatency::cpu0.data  46852735645                       # number of overall MSHR miss ticks (Tick)
system.cpu0.dcache.overallMshrMissLatency::total  46852735645                       # number of overall MSHR miss ticks (Tick)
system.cpu0.dcache.demandMshrMissRate::cpu0.data     0.022178                       # mshr miss ratio for demand accesses (Ratio)
system.cpu0.dcache.demandMshrMissRate::total     0.022178                       # mshr miss ratio for demand accesses (Ratio)
system.cpu0.dcache.overallMshrMissRate::cpu0.data     0.022182                       # mshr miss ratio for overall accesses (Ratio)
system.cpu0.dcache.overallMshrMissRate::total     0.022182                       # mshr miss ratio for overall accesses (Ratio)
system.cpu0.dcache.demandAvgMshrMissLatency::cpu0.data 27089.265106                       # average overall mshr miss latency ((Tick/Count))
system.cpu0.dcache.demandAvgMshrMissLatency::total 27089.265106                       # average overall mshr miss latency ((Tick/Count))
system.cpu0.dcache.overallAvgMshrMissLatency::cpu0.data 27077.716684                       # average overall mshr miss latency ((Tick/Count))
system.cpu0.dcache.overallAvgMshrMissLatency::total 27077.716684                       # average overall mshr miss latency ((Tick/Count))
system.cpu0.dcache.replacements               1726318                       # number of replacements (Count)
system.cpu0.dcache.LockedRMWReadReq.hits::cpu0.data         2285                       # number of LockedRMWReadReq hits (Count)
system.cpu0.dcache.LockedRMWReadReq.hits::total         2285                       # number of LockedRMWReadReq hits (Count)
system.cpu0.dcache.LockedRMWReadReq.misses::cpu0.data          117                       # number of LockedRMWReadReq misses (Count)
system.cpu0.dcache.LockedRMWReadReq.misses::total          117                       # number of LockedRMWReadReq misses (Count)
system.cpu0.dcache.LockedRMWReadReq.missLatency::cpu0.data      3147312                       # number of LockedRMWReadReq miss ticks (Tick)
system.cpu0.dcache.LockedRMWReadReq.missLatency::total      3147312                       # number of LockedRMWReadReq miss ticks (Tick)
system.cpu0.dcache.LockedRMWReadReq.accesses::cpu0.data         2402                       # number of LockedRMWReadReq accesses(hits+misses) (Count)
system.cpu0.dcache.LockedRMWReadReq.accesses::total         2402                       # number of LockedRMWReadReq accesses(hits+misses) (Count)
system.cpu0.dcache.LockedRMWReadReq.missRate::cpu0.data     0.048709                       # miss rate for LockedRMWReadReq accesses (Ratio)
system.cpu0.dcache.LockedRMWReadReq.missRate::total     0.048709                       # miss rate for LockedRMWReadReq accesses (Ratio)
system.cpu0.dcache.LockedRMWReadReq.avgMissLatency::cpu0.data 26900.102564                       # average LockedRMWReadReq miss latency ((Tick/Count))
system.cpu0.dcache.LockedRMWReadReq.avgMissLatency::total 26900.102564                       # average LockedRMWReadReq miss latency ((Tick/Count))
system.cpu0.dcache.LockedRMWReadReq.mshrMisses::cpu0.data          117                       # number of LockedRMWReadReq MSHR misses (Count)
system.cpu0.dcache.LockedRMWReadReq.mshrMisses::total          117                       # number of LockedRMWReadReq MSHR misses (Count)
system.cpu0.dcache.LockedRMWReadReq.mshrMissLatency::cpu0.data     13647396                       # number of LockedRMWReadReq MSHR miss ticks (Tick)
system.cpu0.dcache.LockedRMWReadReq.mshrMissLatency::total     13647396                       # number of LockedRMWReadReq MSHR miss ticks (Tick)
system.cpu0.dcache.LockedRMWReadReq.mshrMissRate::cpu0.data     0.048709                       # mshr miss rate for LockedRMWReadReq accesses (Ratio)
system.cpu0.dcache.LockedRMWReadReq.mshrMissRate::total     0.048709                       # mshr miss rate for LockedRMWReadReq accesses (Ratio)
system.cpu0.dcache.LockedRMWReadReq.avgMshrMissLatency::cpu0.data 116644.410256                       # average LockedRMWReadReq mshr miss latency ((Tick/Count))
system.cpu0.dcache.LockedRMWReadReq.avgMshrMissLatency::total 116644.410256                       # average LockedRMWReadReq mshr miss latency ((Tick/Count))
system.cpu0.dcache.LockedRMWWriteReq.hits::cpu0.data         2402                       # number of LockedRMWWriteReq hits (Count)
system.cpu0.dcache.LockedRMWWriteReq.hits::total         2402                       # number of LockedRMWWriteReq hits (Count)
system.cpu0.dcache.LockedRMWWriteReq.accesses::cpu0.data         2402                       # number of LockedRMWWriteReq accesses(hits+misses) (Count)
system.cpu0.dcache.LockedRMWWriteReq.accesses::total         2402                       # number of LockedRMWWriteReq accesses(hits+misses) (Count)
system.cpu0.dcache.ReadReq.hits::cpu0.data     54062360                       # number of ReadReq hits (Count)
system.cpu0.dcache.ReadReq.hits::total       54062360                       # number of ReadReq hits (Count)
system.cpu0.dcache.ReadReq.misses::cpu0.data      2720464                       # number of ReadReq misses (Count)
system.cpu0.dcache.ReadReq.misses::total      2720464                       # number of ReadReq misses (Count)
system.cpu0.dcache.ReadReq.missLatency::cpu0.data  76890849924                       # number of ReadReq miss ticks (Tick)
system.cpu0.dcache.ReadReq.missLatency::total  76890849924                       # number of ReadReq miss ticks (Tick)
system.cpu0.dcache.ReadReq.accesses::cpu0.data     56782824                       # number of ReadReq accesses(hits+misses) (Count)
system.cpu0.dcache.ReadReq.accesses::total     56782824                       # number of ReadReq accesses(hits+misses) (Count)
system.cpu0.dcache.ReadReq.missRate::cpu0.data     0.047910                       # miss rate for ReadReq accesses (Ratio)
system.cpu0.dcache.ReadReq.missRate::total     0.047910                       # miss rate for ReadReq accesses (Ratio)
system.cpu0.dcache.ReadReq.avgMissLatency::cpu0.data 28263.873341                       # average ReadReq miss latency ((Tick/Count))
system.cpu0.dcache.ReadReq.avgMissLatency::total 28263.873341                       # average ReadReq miss latency ((Tick/Count))
system.cpu0.dcache.ReadReq.mshrHits::cpu0.data      1307104                       # number of ReadReq MSHR hits (Count)
system.cpu0.dcache.ReadReq.mshrHits::total      1307104                       # number of ReadReq MSHR hits (Count)
system.cpu0.dcache.ReadReq.mshrMisses::cpu0.data      1413360                       # number of ReadReq MSHR misses (Count)
system.cpu0.dcache.ReadReq.mshrMisses::total      1413360                       # number of ReadReq MSHR misses (Count)
system.cpu0.dcache.ReadReq.mshrMissLatency::cpu0.data  24649737588                       # number of ReadReq MSHR miss ticks (Tick)
system.cpu0.dcache.ReadReq.mshrMissLatency::total  24649737588                       # number of ReadReq MSHR miss ticks (Tick)
system.cpu0.dcache.ReadReq.mshrMissRate::cpu0.data     0.024891                       # mshr miss rate for ReadReq accesses (Ratio)
system.cpu0.dcache.ReadReq.mshrMissRate::total     0.024891                       # mshr miss rate for ReadReq accesses (Ratio)
system.cpu0.dcache.ReadReq.avgMshrMissLatency::cpu0.data 17440.523001                       # average ReadReq mshr miss latency ((Tick/Count))
system.cpu0.dcache.ReadReq.avgMshrMissLatency::total 17440.523001                       # average ReadReq mshr miss latency ((Tick/Count))
system.cpu0.dcache.SoftPFReq.hits::cpu0.data        31376                       # number of SoftPFReq hits (Count)
system.cpu0.dcache.SoftPFReq.hits::total        31376                       # number of SoftPFReq hits (Count)
system.cpu0.dcache.SoftPFReq.misses::cpu0.data         1084                       # number of SoftPFReq misses (Count)
system.cpu0.dcache.SoftPFReq.misses::total         1084                       # number of SoftPFReq misses (Count)
system.cpu0.dcache.SoftPFReq.accesses::cpu0.data        32460                       # number of SoftPFReq accesses(hits+misses) (Count)
system.cpu0.dcache.SoftPFReq.accesses::total        32460                       # number of SoftPFReq accesses(hits+misses) (Count)
system.cpu0.dcache.SoftPFReq.missRate::cpu0.data     0.033395                       # miss rate for SoftPFReq accesses (Ratio)
system.cpu0.dcache.SoftPFReq.missRate::total     0.033395                       # miss rate for SoftPFReq accesses (Ratio)
system.cpu0.dcache.SoftPFReq.mshrMisses::cpu0.data         1079                       # number of SoftPFReq MSHR misses (Count)
system.cpu0.dcache.SoftPFReq.mshrMisses::total         1079                       # number of SoftPFReq MSHR misses (Count)
system.cpu0.dcache.SoftPFReq.mshrMissLatency::cpu0.data      9247014                       # number of SoftPFReq MSHR miss ticks (Tick)
system.cpu0.dcache.SoftPFReq.mshrMissLatency::total      9247014                       # number of SoftPFReq MSHR miss ticks (Tick)
system.cpu0.dcache.SoftPFReq.mshrMissRate::cpu0.data     0.033241                       # mshr miss rate for SoftPFReq accesses (Ratio)
system.cpu0.dcache.SoftPFReq.mshrMissRate::total     0.033241                       # mshr miss rate for SoftPFReq accesses (Ratio)
system.cpu0.dcache.SoftPFReq.avgMshrMissLatency::cpu0.data  8569.985171                       # average SoftPFReq mshr miss latency ((Tick/Count))
system.cpu0.dcache.SoftPFReq.avgMshrMissLatency::total  8569.985171                       # average SoftPFReq mshr miss latency ((Tick/Count))
system.cpu0.dcache.WriteReq.hits::cpu0.data     20872106                       # number of WriteReq hits (Count)
system.cpu0.dcache.WriteReq.hits::total      20872106                       # number of WriteReq hits (Count)
system.cpu0.dcache.WriteReq.misses::cpu0.data       315917                       # number of WriteReq misses (Count)
system.cpu0.dcache.WriteReq.misses::total       315917                       # number of WriteReq misses (Count)
system.cpu0.dcache.WriteReq.missLatency::cpu0.data  22419708122                       # number of WriteReq miss ticks (Tick)
system.cpu0.dcache.WriteReq.missLatency::total  22419708122                       # number of WriteReq miss ticks (Tick)
system.cpu0.dcache.WriteReq.accesses::cpu0.data     21188023                       # number of WriteReq accesses(hits+misses) (Count)
system.cpu0.dcache.WriteReq.accesses::total     21188023                       # number of WriteReq accesses(hits+misses) (Count)
system.cpu0.dcache.WriteReq.missRate::cpu0.data     0.014910                       # miss rate for WriteReq accesses (Ratio)
system.cpu0.dcache.WriteReq.missRate::total     0.014910                       # miss rate for WriteReq accesses (Ratio)
system.cpu0.dcache.WriteReq.avgMissLatency::cpu0.data 70967.083512                       # average WriteReq miss latency ((Tick/Count))
system.cpu0.dcache.WriteReq.avgMissLatency::total 70967.083512                       # average WriteReq miss latency ((Tick/Count))
system.cpu0.dcache.WriteReq.mshrHits::cpu0.data           50                       # number of WriteReq MSHR hits (Count)
system.cpu0.dcache.WriteReq.mshrHits::total           50                       # number of WriteReq MSHR hits (Count)
system.cpu0.dcache.WriteReq.mshrMisses::cpu0.data       315867                       # number of WriteReq MSHR misses (Count)
system.cpu0.dcache.WriteReq.mshrMisses::total       315867                       # number of WriteReq MSHR misses (Count)
system.cpu0.dcache.WriteReq.mshrMissLatency::cpu0.data  22193751043                       # number of WriteReq MSHR miss ticks (Tick)
system.cpu0.dcache.WriteReq.mshrMissLatency::total  22193751043                       # number of WriteReq MSHR miss ticks (Tick)
system.cpu0.dcache.WriteReq.mshrMissRate::cpu0.data     0.014908                       # mshr miss rate for WriteReq accesses (Ratio)
system.cpu0.dcache.WriteReq.mshrMissRate::total     0.014908                       # mshr miss rate for WriteReq accesses (Ratio)
system.cpu0.dcache.WriteReq.avgMshrMissLatency::cpu0.data 70262.962079                       # average WriteReq mshr miss latency ((Tick/Count))
system.cpu0.dcache.WriteReq.avgMshrMissLatency::total 70262.962079                       # average WriteReq mshr miss latency ((Tick/Count))
system.cpu0.dcache.power_state.pwrStateResidencyTicks::UNDEFINED  65845084998                       # Cumulative time (in ticks) in various power states (Tick)
system.cpu0.dcache.tags.tagsInUse         1022.783906                       # Average ticks per tags in use ((Tick/Count))
system.cpu0.dcache.tags.totalRefs            76702995                       # Total number of references to valid blocks. (Count)
system.cpu0.dcache.tags.sampledRefs           1727679                       # Sample count of references to valid blocks. (Count)
system.cpu0.dcache.tags.avgRefs             44.396555                       # Average number of references to valid blocks. ((Count/Count))
system.cpu0.dcache.tags.warmupTick             190995                       # The tick when the warmup percentage was hit. (Tick)
system.cpu0.dcache.tags.occupancies::cpu0.data  1022.783906                       # Average occupied blocks per tick, per requestor ((Count/Tick))
system.cpu0.dcache.tags.avgOccs::cpu0.data     0.998812                       # Average percentage of cache occupancy ((Ratio/Tick))
system.cpu0.dcache.tags.avgOccs::total       0.998812                       # Average percentage of cache occupancy ((Ratio/Tick))
system.cpu0.dcache.tags.occupanciesTaskId::1024         1024                       # Occupied blocks per task id (Count)
system.cpu0.dcache.tags.ageTaskId_1024::0           28                       # Occupied blocks per task id, per block age (Count)
system.cpu0.dcache.tags.ageTaskId_1024::1          877                       # Occupied blocks per task id, per block age (Count)
system.cpu0.dcache.tags.ageTaskId_1024::2          114                       # Occupied blocks per task id, per block age (Count)
system.cpu0.dcache.tags.ageTaskId_1024::3            5                       # Occupied blocks per task id, per block age (Count)
system.cpu0.dcache.tags.ratioOccsTaskId::1024            1                       # Ratio of occupied blocks and all blocks, per task id (Ratio)
system.cpu0.dcache.tags.tagAccesses         625792567                       # Number of tag accesses (Count)
system.cpu0.dcache.tags.dataAccesses        625792567                       # Number of data accesses (Count)
system.cpu0.dcache.tags.power_state.pwrStateResidencyTicks::UNDEFINED  65845084998                       # Cumulative time (in ticks) in various power states (Tick)
system.cpu0.decode.idleCycles                21522210                       # Number of cycles decode is idle (Cycle)
system.cpu0.decode.blockedCycles            100931571                       # Number of cycles decode is blocked (Cycle)
system.cpu0.decode.runCycles                 44856518                       # Number of cycles decode is running (Cycle)
system.cpu0.decode.unblockCycles             10413098                       # Number of cycles decode is unblocking (Cycle)
system.cpu0.decode.squashCycles                364010                       # Number of cycles decode is squashing (Cycle)
system.cpu0.decode.branchResolved            15568952                       # Number of times decode resolved a branch (Count)
system.cpu0.decode.branchMispred                 5861                       # Number of times decode detected a branch misprediction (Count)
system.cpu0.decode.decodedInsts             395119558                       # Number of instructions handled by decode (Count)
system.cpu0.decode.squashedInsts                22513                       # Number of squashed instructions handled by decode (Count)
system.cpu0.dtb_walker_cache.blockedCycles::no_mshrs            0                       # number of cycles access was blocked (Cycle)
system.cpu0.dtb_walker_cache.blockedCycles::no_targets            0                       # number of cycles access was blocked (Cycle)
system.cpu0.dtb_walker_cache.blockedCauses::no_mshrs            0                       # number of times access was blocked (Count)
system.cpu0.dtb_walker_cache.blockedCauses::no_targets            0                       # number of times access was blocked (Count)
system.cpu0.dtb_walker_cache.avgBlocked::no_mshrs          nan                       # average number of cycles each access was blocked ((Cycle/Count))
system.cpu0.dtb_walker_cache.avgBlocked::no_targets          nan                       # average number of cycles each access was blocked ((Cycle/Count))
system.cpu0.dtb_walker_cache.replacements            0                       # number of replacements (Count)
system.cpu0.dtb_walker_cache.power_state.pwrStateResidencyTicks::UNDEFINED  65845084998                       # Cumulative time (in ticks) in various power states (Tick)
system.cpu0.dtb_walker_cache.tags.tagsInUse            0                       # Average ticks per tags in use ((Tick/Count))
system.cpu0.dtb_walker_cache.tags.totalRefs            0                       # Total number of references to valid blocks. (Count)
system.cpu0.dtb_walker_cache.tags.sampledRefs            0                       # Sample count of references to valid blocks. (Count)
system.cpu0.dtb_walker_cache.tags.avgRefs          nan                       # Average number of references to valid blocks. ((Count/Count))
system.cpu0.dtb_walker_cache.tags.warmupTick            0                       # The tick when the warmup percentage was hit. (Tick)
system.cpu0.dtb_walker_cache.tags.tagAccesses            0                       # Number of tag accesses (Count)
system.cpu0.dtb_walker_cache.tags.dataAccesses            0                       # Number of data accesses (Count)
system.cpu0.dtb_walker_cache.tags.power_state.pwrStateResidencyTicks::UNDEFINED  65845084998                       # Cumulative time (in ticks) in various power states (Tick)
system.cpu0.fetch.icacheStallCycles          21872585                       # Number of cycles fetch is stalled on an Icache miss (Cycle)
system.cpu0.fetch.insts                     258636289                       # Number of instructions fetch has processed (Count)
system.cpu0.fetch.branches                   22540717                       # Number of branches that fetch encountered (Count)
system.cpu0.fetch.predictedBranches          16399069                       # Number of branches that fetch has predicted taken (Count)
system.cpu0.fetch.cycles                    155843388                       # Number of cycles fetch has run and was not squashing or blocked (Cycle)
system.cpu0.fetch.squashCycles                 739612                       # Number of cycles fetch has spent squashing (Cycle)
system.cpu0.fetch.miscStallCycles                 222                       # Number of cycles fetch has spent waiting on interrupts, or bad addresses, or out of MSHRs (Cycle)
system.cpu0.fetch.pendingTrapStallCycles         1340                       # Number of stall cycles due to pending traps (Cycle)
system.cpu0.fetch.icacheWaitRetryStallCycles           66                       # Number of stall cycles due to full MSHR (Cycle)
system.cpu0.fetch.cacheLines                 21673274                       # Number of cache lines fetched (Count)
system.cpu0.fetch.icacheSquashes                55714                       # Number of outstanding Icache misses that were squashed (Count)
system.cpu0.fetch.nisnDist::samples         178087407                       # Number of instructions fetched each cycle (Total) (Count)
system.cpu0.fetch.nisnDist::mean             2.253823                       # Number of instructions fetched each cycle (Total) (Count)
system.cpu0.fetch.nisnDist::stdev            3.329619                       # Number of instructions fetched each cycle (Total) (Count)
system.cpu0.fetch.nisnDist::underflows              0      0.00%      0.00% # Number of instructions fetched each cycle (Total) (Count)
system.cpu0.fetch.nisnDist::0               116707420     65.53%     65.53% # Number of instructions fetched each cycle (Total) (Count)
system.cpu0.fetch.nisnDist::1                 1619825      0.91%     66.44% # Number of instructions fetched each cycle (Total) (Count)
system.cpu0.fetch.nisnDist::2                 2866349      1.61%     68.05% # Number of instructions fetched each cycle (Total) (Count)
system.cpu0.fetch.nisnDist::3                 2885888      1.62%     69.67% # Number of instructions fetched each cycle (Total) (Count)
system.cpu0.fetch.nisnDist::4                 4035688      2.27%     71.94% # Number of instructions fetched each cycle (Total) (Count)
system.cpu0.fetch.nisnDist::5                 2434609      1.37%     73.31% # Number of instructions fetched each cycle (Total) (Count)
system.cpu0.fetch.nisnDist::6                10407779      5.84%     79.15% # Number of instructions fetched each cycle (Total) (Count)
system.cpu0.fetch.nisnDist::7                 2434011      1.37%     80.52% # Number of instructions fetched each cycle (Total) (Count)
system.cpu0.fetch.nisnDist::8                34695838     19.48%    100.00% # Number of instructions fetched each cycle (Total) (Count)
system.cpu0.fetch.nisnDist::overflows               0      0.00%    100.00% # Number of instructions fetched each cycle (Total) (Count)
system.cpu0.fetch.nisnDist::min_value               0                       # Number of instructions fetched each cycle (Total) (Count)
system.cpu0.fetch.nisnDist::max_value               8                       # Number of instructions fetched each cycle (Total) (Count)
system.cpu0.fetch.nisnDist::total           178087407                       # Number of instructions fetched each cycle (Total) (Count)
system.cpu0.fetch.branchRate                 0.126353                       # Number of branch fetches per cycle (Ratio)
system.cpu0.fetch.rate                       1.449795                       # Number of inst fetches per cycle ((Count/Cycle))
system.cpu0.icache.demandHits::cpu0.inst     21669864                       # number of demand (read+write) hits (Count)
system.cpu0.icache.demandHits::total         21669864                       # number of demand (read+write) hits (Count)
system.cpu0.icache.overallHits::cpu0.inst     21669864                       # number of overall hits (Count)
system.cpu0.icache.overallHits::total        21669864                       # number of overall hits (Count)
system.cpu0.icache.demandMisses::cpu0.inst         3410                       # number of demand (read+write) misses (Count)
system.cpu0.icache.demandMisses::total           3410                       # number of demand (read+write) misses (Count)
system.cpu0.icache.overallMisses::cpu0.inst         3410                       # number of overall misses (Count)
system.cpu0.icache.overallMisses::total          3410                       # number of overall misses (Count)
system.cpu0.icache.demandMissLatency::cpu0.inst    282110682                       # number of demand (read+write) miss ticks (Tick)
system.cpu0.icache.demandMissLatency::total    282110682                       # number of demand (read+write) miss ticks (Tick)
system.cpu0.icache.overallMissLatency::cpu0.inst    282110682                       # number of overall miss ticks (Tick)
system.cpu0.icache.overallMissLatency::total    282110682                       # number of overall miss ticks (Tick)
system.cpu0.icache.demandAccesses::cpu0.inst     21673274                       # number of demand (read+write) accesses (Count)
system.cpu0.icache.demandAccesses::total     21673274                       # number of demand (read+write) accesses (Count)
system.cpu0.icache.overallAccesses::cpu0.inst     21673274                       # number of overall (read+write) accesses (Count)
system.cpu0.icache.overallAccesses::total     21673274                       # number of overall (read+write) accesses (Count)
system.cpu0.icache.demandMissRate::cpu0.inst     0.000157                       # miss rate for demand accesses (Ratio)
system.cpu0.icache.demandMissRate::total     0.000157                       # miss rate for demand accesses (Ratio)
system.cpu0.icache.overallMissRate::cpu0.inst     0.000157                       # miss rate for overall accesses (Ratio)
system.cpu0.icache.overallMissRate::total     0.000157                       # miss rate for overall accesses (Ratio)
system.cpu0.icache.demandAvgMissLatency::cpu0.inst 82730.405279                       # average overall miss latency in ticks ((Tick/Count))
system.cpu0.icache.demandAvgMissLatency::total 82730.405279                       # average overall miss latency in ticks ((Tick/Count))
system.cpu0.icache.overallAvgMissLatency::cpu0.inst 82730.405279                       # average overall miss latency ((Tick/Count))
system.cpu0.icache.overallAvgMissLatency::total 82730.405279                       # average overall miss latency ((Tick/Count))
system.cpu0.icache.blockedCycles::no_mshrs         1879                       # number of cycles access was blocked (Cycle)
system.cpu0.icache.blockedCycles::no_targets            0                       # number of cycles access was blocked (Cycle)
system.cpu0.icache.blockedCauses::no_mshrs           15                       # number of times access was blocked (Count)
system.cpu0.icache.blockedCauses::no_targets            0                       # number of times access was blocked (Count)
system.cpu0.icache.avgBlocked::no_mshrs    125.266667                       # average number of cycles each access was blocked ((Cycle/Count))
system.cpu0.icache.avgBlocked::no_targets          nan                       # average number of cycles each access was blocked ((Cycle/Count))
system.cpu0.icache.writebacks::writebacks         2064                       # number of writebacks (Count)
system.cpu0.icache.writebacks::total             2064                       # number of writebacks (Count)
system.cpu0.icache.demandMshrHits::cpu0.inst          834                       # number of demand (read+write) MSHR hits (Count)
system.cpu0.icache.demandMshrHits::total          834                       # number of demand (read+write) MSHR hits (Count)
system.cpu0.icache.overallMshrHits::cpu0.inst          834                       # number of overall MSHR hits (Count)
system.cpu0.icache.overallMshrHits::total          834                       # number of overall MSHR hits (Count)
system.cpu0.icache.demandMshrMisses::cpu0.inst         2576                       # number of demand (read+write) MSHR misses (Count)
system.cpu0.icache.demandMshrMisses::total         2576                       # number of demand (read+write) MSHR misses (Count)
system.cpu0.icache.overallMshrMisses::cpu0.inst         2576                       # number of overall MSHR misses (Count)
system.cpu0.icache.overallMshrMisses::total         2576                       # number of overall MSHR misses (Count)
system.cpu0.icache.demandMshrMissLatency::cpu0.inst    221243967                       # number of demand (read+write) MSHR miss ticks (Tick)
system.cpu0.icache.demandMshrMissLatency::total    221243967                       # number of demand (read+write) MSHR miss ticks (Tick)
system.cpu0.icache.overallMshrMissLatency::cpu0.inst    221243967                       # number of overall MSHR miss ticks (Tick)
system.cpu0.icache.overallMshrMissLatency::total    221243967                       # number of overall MSHR miss ticks (Tick)
system.cpu0.icache.demandMshrMissRate::cpu0.inst     0.000119                       # mshr miss ratio for demand accesses (Ratio)
system.cpu0.icache.demandMshrMissRate::total     0.000119                       # mshr miss ratio for demand accesses (Ratio)
system.cpu0.icache.overallMshrMissRate::cpu0.inst     0.000119                       # mshr miss ratio for overall accesses (Ratio)
system.cpu0.icache.overallMshrMissRate::total     0.000119                       # mshr miss ratio for overall accesses (Ratio)
system.cpu0.icache.demandAvgMshrMissLatency::cpu0.inst 85886.633152                       # average overall mshr miss latency ((Tick/Count))
system.cpu0.icache.demandAvgMshrMissLatency::total 85886.633152                       # average overall mshr miss latency ((Tick/Count))
system.cpu0.icache.overallAvgMshrMissLatency::cpu0.inst 85886.633152                       # average overall mshr miss latency ((Tick/Count))
system.cpu0.icache.overallAvgMshrMissLatency::total 85886.633152                       # average overall mshr miss latency ((Tick/Count))
system.cpu0.icache.replacements                  2064                       # number of replacements (Count)
system.cpu0.icache.ReadReq.hits::cpu0.inst     21669864                       # number of ReadReq hits (Count)
system.cpu0.icache.ReadReq.hits::total       21669864                       # number of ReadReq hits (Count)
system.cpu0.icache.ReadReq.misses::cpu0.inst         3410                       # number of ReadReq misses (Count)
system.cpu0.icache.ReadReq.misses::total         3410                       # number of ReadReq misses (Count)
system.cpu0.icache.ReadReq.missLatency::cpu0.inst    282110682                       # number of ReadReq miss ticks (Tick)
system.cpu0.icache.ReadReq.missLatency::total    282110682                       # number of ReadReq miss ticks (Tick)
system.cpu0.icache.ReadReq.accesses::cpu0.inst     21673274                       # number of ReadReq accesses(hits+misses) (Count)
system.cpu0.icache.ReadReq.accesses::total     21673274                       # number of ReadReq accesses(hits+misses) (Count)
system.cpu0.icache.ReadReq.missRate::cpu0.inst     0.000157                       # miss rate for ReadReq accesses (Ratio)
system.cpu0.icache.ReadReq.missRate::total     0.000157                       # miss rate for ReadReq accesses (Ratio)
system.cpu0.icache.ReadReq.avgMissLatency::cpu0.inst 82730.405279                       # average ReadReq miss latency ((Tick/Count))
system.cpu0.icache.ReadReq.avgMissLatency::total 82730.405279                       # average ReadReq miss latency ((Tick/Count))
system.cpu0.icache.ReadReq.mshrHits::cpu0.inst          834                       # number of ReadReq MSHR hits (Count)
system.cpu0.icache.ReadReq.mshrHits::total          834                       # number of ReadReq MSHR hits (Count)
system.cpu0.icache.ReadReq.mshrMisses::cpu0.inst         2576                       # number of ReadReq MSHR misses (Count)
system.cpu0.icache.ReadReq.mshrMisses::total         2576                       # number of ReadReq MSHR misses (Count)
system.cpu0.icache.ReadReq.mshrMissLatency::cpu0.inst    221243967                       # number of ReadReq MSHR miss ticks (Tick)
system.cpu0.icache.ReadReq.mshrMissLatency::total    221243967                       # number of ReadReq MSHR miss ticks (Tick)
system.cpu0.icache.ReadReq.mshrMissRate::cpu0.inst     0.000119                       # mshr miss rate for ReadReq accesses (Ratio)
system.cpu0.icache.ReadReq.mshrMissRate::total     0.000119                       # mshr miss rate for ReadReq accesses (Ratio)
system.cpu0.icache.ReadReq.avgMshrMissLatency::cpu0.inst 85886.633152                       # average ReadReq mshr miss latency ((Tick/Count))
system.cpu0.icache.ReadReq.avgMshrMissLatency::total 85886.633152                       # average ReadReq mshr miss latency ((Tick/Count))
system.cpu0.icache.power_state.pwrStateResidencyTicks::UNDEFINED  65845084998                       # Cumulative time (in ticks) in various power states (Tick)
system.cpu0.icache.tags.tagsInUse          511.395348                       # Average ticks per tags in use ((Tick/Count))
system.cpu0.icache.tags.totalRefs            21672440                       # Total number of references to valid blocks. (Count)
system.cpu0.icache.tags.sampledRefs              2576                       # Sample count of references to valid blocks. (Count)
system.cpu0.icache.tags.avgRefs           8413.214286                       # Average number of references to valid blocks. ((Count/Count))
system.cpu0.icache.tags.warmupTick              94248                       # The tick when the warmup percentage was hit. (Tick)
system.cpu0.icache.tags.occupancies::cpu0.inst   511.395348                       # Average occupied blocks per tick, per requestor ((Count/Tick))
system.cpu0.icache.tags.avgOccs::cpu0.inst     0.998819                       # Average percentage of cache occupancy ((Ratio/Tick))
system.cpu0.icache.tags.avgOccs::total       0.998819                       # Average percentage of cache occupancy ((Ratio/Tick))
system.cpu0.icache.tags.occupanciesTaskId::1024          512                       # Occupied blocks per task id (Count)
system.cpu0.icache.tags.ageTaskId_1024::0           92                       # Occupied blocks per task id, per block age (Count)
system.cpu0.icache.tags.ageTaskId_1024::1          256                       # Occupied blocks per task id, per block age (Count)
system.cpu0.icache.tags.ageTaskId_1024::2            5                       # Occupied blocks per task id, per block age (Count)
system.cpu0.icache.tags.ageTaskId_1024::3           96                       # Occupied blocks per task id, per block age (Count)
system.cpu0.icache.tags.ageTaskId_1024::4           63                       # Occupied blocks per task id, per block age (Count)
system.cpu0.icache.tags.ratioOccsTaskId::1024            1                       # Ratio of occupied blocks and all blocks, per task id (Ratio)
system.cpu0.icache.tags.tagAccesses         173388768                       # Number of tag accesses (Count)
system.cpu0.icache.tags.dataAccesses        173388768                       # Number of data accesses (Count)
system.cpu0.icache.tags.power_state.pwrStateResidencyTicks::UNDEFINED  65845084998                       # Cumulative time (in ticks) in various power states (Tick)
system.cpu0.iew.idleCycles                          0                       # Number of cycles IEW is idle (Cycle)
system.cpu0.iew.squashCycles                   364010                       # Number of cycles IEW is squashing (Cycle)
system.cpu0.iew.blockCycles                   3478472                       # Number of cycles IEW is blocking (Cycle)
system.cpu0.iew.unblockCycles                10265415                       # Number of cycles IEW is unblocking (Cycle)
system.cpu0.iew.dispatchedInsts             390155048                       # Number of instructions dispatched to IQ (Count)
system.cpu0.iew.dispSquashedInsts               77984                       # Number of squashed instructions skipped by dispatch (Count)
system.cpu0.iew.dispLoadInsts                60507412                       # Number of dispatched load instructions (Count)
system.cpu0.iew.dispStoreInsts               22686135                       # Number of dispatched store instructions (Count)
system.cpu0.iew.dispNonSpecInsts                 4097                       # Number of dispatched non-speculative instructions (Count)
system.cpu0.iew.iqFullEvents                    44433                       # Number of times the IQ has become full, causing a stall (Count)
system.cpu0.iew.lsqFullEvents                10204886                       # Number of times the LSQ has become full, causing a stall (Count)
system.cpu0.iew.memOrderViolationEvents          8182                       # Number of memory order violations (Count)
system.cpu0.iew.predictedTakenIncorrect        238202                       # Number of branches that were predicted taken incorrectly (Count)
[...]
system.mem_ctrls.dram.perBankWrBursts::11        15077                       # Per bank write bursts (Count)
system.mem_ctrls.dram.perBankWrBursts::12        15895                       # Per bank write bursts (Count)
system.mem_ctrls.dram.perBankWrBursts::13        16002                       # Per bank write bursts (Count)
system.mem_ctrls.dram.perBankWrBursts::14        15525                       # Per bank write bursts (Count)
system.mem_ctrls.dram.perBankWrBursts::15        15805                       # Per bank write bursts (Count)
system.mem_ctrls.dram.totQLat              5046160112                       # Total ticks spent queuing (Tick)
system.mem_ctrls.dram.totBusLat            2236930000                       # Total ticks spent in databus transfers (Tick)
system.mem_ctrls.dram.totMemAccLat        13434647612                       # Total ticks spent from burst creation until serviced by the DRAM (Tick)
system.mem_ctrls.dram.avgQLat                11279.21                       # Average queueing delay per DRAM burst ((Tick/Count))
system.mem_ctrls.dram.avgBusLat               5000.00                       # Average bus latency per DRAM burst ((Tick/Count))
system.mem_ctrls.dram.avgMemAccLat           30029.21                       # Average memory access latency per DRAM burst ((Tick/Count))
system.mem_ctrls.dram.readRowHits              395046                       # Number of row buffer hits during reads (Count)
system.mem_ctrls.dram.writeRowHits             202408                       # Number of row buffer hits during writes (Count)
system.mem_ctrls.dram.readRowHitRate            88.30                       # Row buffer hit rate for reads (Ratio)
system.mem_ctrls.dram.writeRowHitRate           82.15                       # Row buffer hit rate for writes (Ratio)
system.mem_ctrls.dram.bytesPerActivate::samples        96296                       # Bytes accessed per row activation (Byte)
system.mem_ctrls.dram.bytesPerActivate::mean   461.077013                       # Bytes accessed per row activation (Byte)
system.mem_ctrls.dram.bytesPerActivate::gmean   301.065616                       # Bytes accessed per row activation (Byte)
system.mem_ctrls.dram.bytesPerActivate::stdev   358.964156                       # Bytes accessed per row activation (Byte)
system.mem_ctrls.dram.bytesPerActivate::0-127        20698     21.49%     21.49% # Bytes accessed per row activation (Byte)
system.mem_ctrls.dram.bytesPerActivate::128-255        14734     15.30%     36.79% # Bytes accessed per row activation (Byte)
system.mem_ctrls.dram.bytesPerActivate::256-383        11343     11.78%     48.57% # Bytes accessed per row activation (Byte)
system.mem_ctrls.dram.bytesPerActivate::384-511         8061      8.37%     56.95% # Bytes accessed per row activation (Byte)
system.mem_ctrls.dram.bytesPerActivate::512-639        10926     11.35%     68.29% # Bytes accessed per row activation (Byte)
system.mem_ctrls.dram.bytesPerActivate::640-767         4615      4.79%     73.08% # Bytes accessed per row activation (Byte)
system.mem_ctrls.dram.bytesPerActivate::768-895         3765      3.91%     76.99% # Bytes accessed per row activation (Byte)
system.mem_ctrls.dram.bytesPerActivate::896-1023         3663      3.80%     80.80% # Bytes accessed per row activation (Byte)
system.mem_ctrls.dram.bytesPerActivate::1024-1151        18491     19.20%    100.00% # Bytes accessed per row activation (Byte)
system.mem_ctrls.dram.bytesPerActivate::total        96296                       # Bytes accessed per row activation (Byte)
system.mem_ctrls.dram.bytesRead              28632704                       # Total bytes read (Byte)
system.mem_ctrls.dram.bytesWritten           15768128                       # Total bytes written (Byte)
system.mem_ctrls.dram.avgRdBW              434.849526                       # Average DRAM read bandwidth in MiBytes/s ((Byte/Second))
system.mem_ctrls.dram.avgWrBW              239.473121                       # Average DRAM write bandwidth in MiBytes/s ((Byte/Second))
system.mem_ctrls.dram.peakBW                 12800.00                       # Theoretical peak bandwidth in MiByte/s ((Byte/Second))
system.mem_ctrls.dram.busUtil                    5.27                       # Data bus utilization in percentage (Ratio)
system.mem_ctrls.dram.busUtilRead                3.40                       # Data bus utilization in percentage for reads (Ratio)
system.mem_ctrls.dram.busUtilWrite               1.87                       # Data bus utilization in percentage for writes (Ratio)
system.mem_ctrls.dram.pageHitRate               86.12                       # Row buffer hit rate, read and write combined (Ratio)
system.mem_ctrls.dram.power_state.pwrStateResidencyTicks::UNDEFINED  65845084998                       # Cumulative time (in ticks) in various power states (Tick)
system.mem_ctrls.dram.rank0.actEnergy       352544640                       # Energy for activate commands per rank (pJ) (Joule)
system.mem_ctrls.dram.rank0.preEnergy       187355355                       # Energy for precharge commands per rank (pJ) (Joule)
system.mem_ctrls.dram.rank0.readEnergy     1599652740                       # Energy for read commands per rank (pJ) (Joule)
system.mem_ctrls.dram.rank0.writeEnergy     646653600                       # Energy for write commands per rank (pJ) (Joule)
system.mem_ctrls.dram.rank0.refreshEnergy 5197395840.000001                       # Energy for refresh commands per rank (pJ) (Joule)
system.mem_ctrls.dram.rank0.actBackEnergy  11969365020                       # Energy for active background per rank (pJ) (Joule)
system.mem_ctrls.dram.rank0.preBackEnergy  15205047360                       # Energy for precharge background per rank (pJ) (Joule)
system.mem_ctrls.dram.rank0.actPowerDownEnergy            0                       # Energy for active power-down per rank (pJ) (Joule)
system.mem_ctrls.dram.rank0.prePowerDownEnergy            0                       # Energy for precharge power-down per rank (pJ) (Joule)
system.mem_ctrls.dram.rank0.selfRefreshEnergy            0                       # Energy for self refresh per rank (pJ) (Joule)
system.mem_ctrls.dram.rank0.totalEnergy   35158014555                       # Total energy per rank (pJ) (Joule)
system.mem_ctrls.dram.rank0.averagePower   533.950477                       # Core power per rank (mW) (Watt)
system.mem_ctrls.dram.rank0.totalIdleTime            0                       # Total Idle time Per DRAM Rank (Tick)
system.mem_ctrls.dram.rank0.pwrStateTime::IDLE  39314120269                       # Time in different power states (Tick)
system.mem_ctrls.dram.rank0.pwrStateTime::REF   2198560000                       # Time in different power states (Tick)
system.mem_ctrls.dram.rank0.pwrStateTime::SREF            0                       # Time in different power states (Tick)
system.mem_ctrls.dram.rank0.pwrStateTime::PRE_PDN            0                       # Time in different power states (Tick)
system.mem_ctrls.dram.rank0.pwrStateTime::ACT  24332404729                       # Time in different power states (Tick)
system.mem_ctrls.dram.rank0.pwrStateTime::ACT_PDN            0                       # Time in different power states (Tick)
system.mem_ctrls.dram.rank1.actEnergy       335101620                       # Energy for activate commands per rank (pJ) (Joule)
system.mem_ctrls.dram.rank1.preEnergy       178087965                       # Energy for precharge commands per rank (pJ) (Joule)
system.mem_ctrls.dram.rank1.readEnergy     1594683300                       # Energy for read commands per rank (pJ) (Joule)
system.mem_ctrls.dram.rank1.writeEnergy     639434340                       # Energy for write commands per rank (pJ) (Joule)
system.mem_ctrls.dram.rank1.refreshEnergy 5197395840.000001                       # Energy for refresh commands per rank (pJ) (Joule)
system.mem_ctrls.dram.rank1.actBackEnergy  12217662720                       # Energy for active background per rank (pJ) (Joule)
system.mem_ctrls.dram.rank1.preBackEnergy  14995954560                       # Energy for precharge background per rank (pJ) (Joule)
system.mem_ctrls.dram.rank1.actPowerDownEnergy            0                       # Energy for active power-down per rank (pJ) (Joule)
system.mem_ctrls.dram.rank1.prePowerDownEnergy            0                       # Energy for precharge power-down per rank (pJ) (Joule)
system.mem_ctrls.dram.rank1.selfRefreshEnergy            0                       # Energy for self refresh per rank (pJ) (Joule)
system.mem_ctrls.dram.rank1.totalEnergy   35158320345                       # Total energy per rank (pJ) (Joule)
system.mem_ctrls.dram.rank1.averagePower   533.955121                       # Core power per rank (mW) (Watt)
system.mem_ctrls.dram.rank1.totalIdleTime            0                       # Total Idle time Per DRAM Rank (Tick)
system.mem_ctrls.dram.rank1.pwrStateTime::IDLE  38769360289                       # Time in different power states (Tick)
system.mem_ctrls.dram.rank1.pwrStateTime::REF   2198560000                       # Time in different power states (Tick)
system.mem_ctrls.dram.rank1.pwrStateTime::SREF            0                       # Time in different power states (Tick)
system.mem_ctrls.dram.rank1.pwrStateTime::PRE_PDN            0                       # Time in different power states (Tick)
system.mem_ctrls.dram.rank1.pwrStateTime::ACT  24877164709                       # Time in different power states (Tick)
system.mem_ctrls.dram.rank1.pwrStateTime::ACT_PDN            0                       # Time in different power states (Tick)
system.mem_ctrls.power_state.pwrStateResidencyTicks::UNDEFINED  65845084998                       # Cumulative time (in ticks) in various power states (Tick)
system.membus.transDist::ReadResp              183784                       # Transaction distribution (Count)
system.membus.transDist::WritebackDirty        246404                       # Transaction distribution (Count)
system.membus.transDist::CleanEvict             92397                       # Transaction distribution (Count)
system.membus.transDist::UpgradeReq               482                       # Transaction distribution (Count)
system.membus.transDist::ReadExReq             263753                       # Transaction distribution (Count)
system.membus.transDist::ReadExResp            263613                       # Transaction distribution (Count)
system.membus.transDist::ReadSharedReq         183784                       # Transaction distribution (Count)
system.membus.pktCount_system.l3.mem_side_port::system.mem_ctrls.port      1234217                       # Packet count per connected requestor and responder (Count)
system.membus.pktCount_system.l3.mem_side_port::total      1234217                       # Packet count per connected requestor and responder (Count)
system.membus.pktCount::total                 1234217                       # Packet count per connected requestor and responder (Count)
system.membus.pktSize_system.l3.mem_side_port::system.mem_ctrls.port     44403264                       # Cumulative packet size per connected requestor and responder (Byte)
system.membus.pktSize_system.l3.mem_side_port::total     44403264                       # Cumulative packet size per connected requestor and responder (Byte)
system.membus.pktSize::total                 44403264                       # Cumulative packet size per connected requestor and responder (Byte)
system.membus.snoops                              582                       # Total snoops (Count)
system.membus.snoopTraffic                          0                       # Total snoop traffic (Byte)
system.membus.snoopFanout::samples             448019                       # Request fanout histogram (Count)
system.membus.snoopFanout::mean                     0                       # Request fanout histogram (Count)
system.membus.snoopFanout::stdev                    0                       # Request fanout histogram (Count)
system.membus.snoopFanout::underflows               0      0.00%      0.00% # Request fanout histogram (Count)
system.membus.snoopFanout::0                   448019    100.00%    100.00% # Request fanout histogram (Count)
system.membus.snoopFanout::1                        0      0.00%    100.00% # Request fanout histogram (Count)
system.membus.snoopFanout::overflows                0      0.00%    100.00% # Request fanout histogram (Count)
system.membus.snoopFanout::min_value                0                       # Request fanout histogram (Count)
system.membus.snoopFanout::max_value                0                       # Request fanout histogram (Count)
system.membus.snoopFanout::total               448019                       # Request fanout histogram (Count)
system.membus.power_state.pwrStateResidencyTicks::UNDEFINED  65845084998                       # Cumulative time (in ticks) in various power states (Tick)
system.membus.reqLayer4.occupancy          2192556155                       # Layer occupancy (ticks) (Tick)
system.membus.reqLayer4.utilization               0.0                       # Layer utilization (Ratio)
system.membus.respLayer1.occupancy         2366059449                       # Layer occupancy (ticks) (Tick)
system.membus.respLayer1.utilization              0.0                       # Layer utilization (Ratio)
system.membus.snoop_filter.totRequests         786820                       # Total number of requests made to the snoop filter. (Count)
system.membus.snoop_filter.hitSingleRequests       339609                       # Number of requests hitting in the snoop filter with a single holder of the requested data. (Count)
system.membus.snoop_filter.hitMultiRequests            0                       # Number of requests hitting in the snoop filter with multiple (>1) holders of the requested data. (Count)
system.membus.snoop_filter.totSnoops                0                       # Total number of snoops made to the snoop filter. (Count)
system.membus.snoop_filter.hitSingleSnoops            0                       # Number of snoops hitting in the snoop filter with a single holder of the requested data. (Count)
system.membus.snoop_filter.hitMultiSnoops            0                       # Number of snoops hitting in the snoop filter with multiple (>1) holders of the requested data. (Count)
system.tollcbus.transDist::ReadResp            261007                       # Transaction distribution (Count)
system.tollcbus.transDist::WritebackDirty       615375                       # Transaction distribution (Count)
system.tollcbus.transDist::CleanEvict          243752                       # Transaction distribution (Count)
system.tollcbus.transDist::UpgradeReq             873                       # Transaction distribution (Count)
system.tollcbus.transDist::UpgradeResp            873                       # Transaction distribution (Count)
system.tollcbus.transDist::ReadExReq           272690                       # Transaction distribution (Count)
system.tollcbus.transDist::ReadExResp          272690                       # Transaction distribution (Count)
system.tollcbus.transDist::ReadSharedReq       261007                       # Transaction distribution (Count)
system.tollcbus.pktCount_system.cpu0.l2.mem_side_port::system.l3.cpu_side_port      1275379                       # Packet count per connected requestor and responder (Count)
system.tollcbus.pktCount_system.cpu1.l2.mem_side_port::system.l3.cpu_side_port       241346                       # Packet count per connected requestor and responder (Count)
system.tollcbus.pktCount::total               1516725                       # Packet count per connected requestor and responder (Count)
system.tollcbus.pktSize_system.cpu0.l2.mem_side_port::system.l3.cpu_side_port     47437184                       # Cumulative packet size per connected requestor and responder (Byte)
system.tollcbus.pktSize_system.cpu1.l2.mem_side_port::system.l3.cpu_side_port      9126848                       # Cumulative packet size per connected requestor and responder (Byte)
system.tollcbus.pktSize::total               56564032                       # Cumulative packet size per connected requestor and responder (Byte)
system.tollcbus.snoops                         411542                       # Total snoops (Count)
system.tollcbus.snoopTraffic                 16976576                       # Total snoop traffic (Byte)
system.tollcbus.snoopFanout::samples           926815                       # Request fanout histogram (Count)
system.tollcbus.snoopFanout::mean            0.088667                       # Request fanout histogram (Count)
system.tollcbus.snoopFanout::stdev           0.287366                       # Request fanout histogram (Count)
system.tollcbus.snoopFanout::underflows             0      0.00%      0.00% # Request fanout histogram (Count)
system.tollcbus.snoopFanout::0                 845459     91.22%     91.22% # Request fanout histogram (Count)
system.tollcbus.snoopFanout::1                  80534      8.69%     99.91% # Request fanout histogram (Count)
system.tollcbus.snoopFanout::2                    822      0.09%    100.00% # Request fanout histogram (Count)
system.tollcbus.snoopFanout::overflows              0      0.00%    100.00% # Request fanout histogram (Count)
system.tollcbus.snoopFanout::min_value              0                       # Request fanout histogram (Count)
system.tollcbus.snoopFanout::max_value              2                       # Request fanout histogram (Count)
system.tollcbus.snoopFanout::total             926815                       # Request fanout histogram (Count)
system.tollcbus.power_state.pwrStateResidencyTicks::UNDEFINED  65845084998                       # Cumulative time (in ticks) in various power states (Tick)
system.tollcbus.reqLayer0.occupancy         620964371                       # Layer occupancy (ticks) (Tick)
system.tollcbus.reqLayer0.utilization             0.0                       # Layer utilization (Ratio)
system.tollcbus.respLayer0.occupancy        470619871                       # Layer occupancy (ticks) (Tick)
system.tollcbus.respLayer0.utilization            0.0                       # Layer utilization (Ratio)
system.tollcbus.respLayer1.occupancy        101292670                       # Layer occupancy (ticks) (Tick)
system.tollcbus.respLayer1.utilization            0.0                       # Layer utilization (Ratio)
system.tollcbus.snoop_filter.totRequests      1001452                       # Total number of requests made to the snoop filter. (Count)
system.tollcbus.snoop_filter.hitSingleRequests       485234                       # Number of requests hitting in the snoop filter with a single holder of the requested data. (Count)
system.tollcbus.snoop_filter.hitMultiRequests         3720                       # Number of requests hitting in the snoop filter with multiple (>1) holders of the requested data. (Count)
system.tollcbus.snoop_filter.totSnoops          59295                       # Total number of snoops made to the snoop filter. (Count)
system.tollcbus.snoop_filter.hitSingleSnoops        58473                       # Number of snoops hitting in the snoop filter with a single holder of the requested data. (Count)
system.tollcbus.snoop_filter.hitMultiSnoops          822                       # Number of snoops hitting in the snoop filter with multiple (>1) holders of the requested data. (Count)
system.voltage_domain.voltage                       1                       # Voltage in Volts (Volt)
system.workload.inst.arm                            0                       # number of arm instructions executed (Count)
system.workload.inst.quiesce                        0                       # number of quiesce instructions executed (Count)

---------- End Simulation Statistics   ----------
