
---------- Begin Simulation Statistics ----------
simSeconds                                   0.062394                       # Number of seconds simulated (Second)
simTicks                                  62393801064                       # Number of ticks simulated (Tick)
finalTick                                 62393801064                       # Number of ticks from beginning of simulation (restored from checkpoints and never reset) (Tick)
simFreq                                  1000000000000                       # The number of ticks per simulated second ((Tick/Second))
hostSeconds                                   1091.89                       # Real time elapsed on the host (Second)
hostTickRate                                 57142731                       # The number of ticks simulated per host second (ticks/s) ((Tick/Second))
hostMemory                                     715808                       # Number of bytes of host memory used (Byte)
simInsts                                    430328309                       # Number of instructions simulated (Count)
simOps                                      430330095                       # Number of ops (including micro ops) simulated (Count)
hostInstRate                                   394112                       # Simulator instruction rate (inst/s) ((Count/Second))
hostOpRate                                     394113                       # Simulator op (including micro ops) rate (op/s) ((Count/Second))
system.clk_domain.clock                          1000                       # Clock period in ticks (Tick)
system.cpu0.numCycles                       167534643                       # Number of cpu cycles simulated (Cycle)
system.cpu0.numWorkItemsStarted                     0                       # Number of work items this cpu started (Count)
system.cpu0.numWorkItemsCompleted                   0                       # Number of work items this cpu completed (Count)
system.cpu0.instsAdded                      258098810                       # Number of instructions added to the IQ (excludes non-spec) (Count)
system.cpu0.nonSpecInstsAdded                    5185                       # Number of non-speculative instructions added to the IQ (Count)
system.cpu0.instsIssued                     252910974                       # Number of instructions issued (Count)
system.cpu0.squashedInstsIssued                 40709                       # Number of squashed instructions issued (Count)
system.cpu0.squashedInstsExamined            11968799                       # Number of squashed instructions iterated over during squash; mainly for profiling (Count)
system.cpu0.squashedOperandsExamined          9462959                       # Number of squashed operands that are examined and possibly removed from graph (Count)
system.cpu0.squashedNonSpecRemoved                892                       # Number of squashed non-spec instructions that were removed (Count)
system.cpu0.numIssuedDist::samples          167296497                       # Number of insts issued each cycle (Count)
system.cpu0.numIssuedDist::mean              1.511753                       # Number of insts issued each cycle (Count)
system.cpu0.numIssuedDist::stdev             1.847162                       # Number of insts issued each cycle (Count)
system.cpu0.numIssuedDist::underflows               0      0.00%      0.00% # Number of insts issued each cycle (Count)
system.cpu0.numIssuedDist::0                 72409761     43.28%     43.28% # Number of insts issued each cycle (Count)
system.cpu0.numIssuedDist::1                 31439447     18.79%     62.07% # Number of insts issued each cycle (Count)
system.cpu0.numIssuedDist::2                 21210163     12.68%     74.75% # Number of insts issued each cycle (Count)
system.cpu0.numIssuedDist::3                 16139108      9.65%     84.40% # Number of insts issued each cycle (Count)
system.cpu0.numIssuedDist::4                 12333303      7.37%     91.77% # Number of insts issued each cycle (Count)
system.cpu0.numIssuedDist::5                  6393617      3.82%     95.59% # Number of insts issued each cycle (Count)
system.cpu0.numIssuedDist::6                  3621561      2.16%     97.76% # Number of insts issued each cycle (Count)
system.cpu0.numIssuedDist::7                  2393082      1.43%     99.19% # Number of insts issued each cycle (Count)
system.cpu0.numIssuedDist::8                  1356455      0.81%    100.00% # Number of insts issued each cycle (Count)
system.cpu0.numIssuedDist::overflows                0      0.00%    100.00% # Number of insts issued each cycle (Count)
system.cpu0.numIssuedDist::min_value                0                       # Number of insts issued each cycle (Count)
system.cpu0.numIssuedDist::max_value                8                       # Number of insts issued each cycle (Count)
system.cpu0.numIssuedDist::total            167296497                       # Number of insts issued each cycle (Count)
system.cpu0.statFuBusy::No_OpClass                  0      0.00%      0.00% # attempts to use FU when none available (Count)
system.cpu0.statFuBusy::IntAlu                 360135     11.48%     11.48% # attempts to use FU when none available (Count)
system.cpu0.statFuBusy::IntMult                 43508      1.39%     12.87% # attempts to use FU when none available (Count)
system.cpu0.statFuBusy::IntDiv                  23498      0.75%     13.61% # attempts to use FU when none available (Count)
system.cpu0.statFuBusy::FloatAdd                 1131      0.04%     13.65% # attempts to use FU when none available (Count)
system.cpu0.statFuBusy::FloatCmp                    0      0.00%     13.65% # attempts to use FU when none available (Count)
system.cpu0.statFuBusy::FloatCvt                    0      0.00%     13.65% # attempts to use FU when none available (Count)
system.cpu0.statFuBusy::FloatMult             2067938     65.91%     79.56% # attempts to use FU when none available (Count)
system.cpu0.statFuBusy::FloatMultAcc                0      0.00%     79.56% # attempts to use FU when none available (Count)
system.cpu0.statFuBusy::FloatDiv                  141      0.00%     79.56% # attempts to use FU when none available (Count)
system.cpu0.statFuBusy::FloatMisc                   0      0.00%     79.56% # attempts to use FU when none available (Count)
system.cpu0.statFuBusy::FloatSqrt                   2      0.00%     79.56% # attempts to use FU when none available (Count)
system.cpu0.statFuBusy::SimdAdd                     0      0.00%     79.56% # attempts to use FU when none available (Count)
system.cpu0.statFuBusy::SimdAddAcc                  0      0.00%     79.56% # attempts to use FU when none available (Count)
system.cpu0.statFuBusy::SimdAlu                     0      0.00%     79.56% # attempts to use FU when none available (Count)
system.cpu0.statFuBusy::SimdCmp                     0      0.00%     79.56% # attempts to use FU when none available (Count)
system.cpu0.statFuBusy::SimdCvt                     0      0.00%     79.56% # attempts to use FU when none available (Count)
system.cpu0.statFuBusy::SimdMisc                    0      0.00%     79.56% # attempts to use FU when none available (Count)
system.cpu0.statFuBusy::SimdMult                    0      0.00%     79.56% # attempts to use FU when none available (Count)
system.cpu0.statFuBusy::SimdMultAcc                 0      0.00%     79.56% # attempts to use FU when none available (Count)
system.cpu0.statFuBusy::SimdShift                   0      0.00%     79.56% # attempts to use FU when none available (Count)
system.cpu0.statFuBusy::SimdShiftAcc                0      0.00%     79.56% # attempts to use FU when none available (Count)
system.cpu0.statFuBusy::SimdDiv                     0      0.00%     79.56% # attempts to use FU when none available (Count)
system.cpu0.statFuBusy::SimdSqrt                    0      0.00%     79.56% # attempts to use FU when none available (Count)
system.cpu0.statFuBusy::SimdFloatAdd                0      0.00%     79.56% # attempts to use FU when none available (Count)
system.cpu0.statFuBusy::SimdFloatAlu                0      0.00%     79.56% # attempts to use FU when none available (Count)
system.cpu0.statFuBusy::SimdFloatCmp                0      0.00%     79.56% # attempts to use FU when none available (Count)
system.cpu0.statFuBusy::SimdFloatCvt                0      0.00%     79.56% # attempts to use FU when none available (Count)
system.cpu0.statFuBusy::SimdFloatDiv                0      0.00%     79.56% # attempts to use FU when none available (Count)
system.cpu0.statFuBusy::SimdFloatMisc               0      0.00%     79.56% # attempts to use FU when none available (Count)
system.cpu0.statFuBusy::SimdFloatMult               0      0.00%     79.56% # attempts to use FU when none available (Count)
system.cpu0.statFuBusy::SimdFloatMultAcc            0      0.00%     79.56% # attempts to use FU when none available (Count)
system.cpu0.statFuBusy::SimdFloatSqrt               0      0.00%     79.56% # attempts to use FU when none available (Count)
system.cpu0.statFuBusy::SimdReduceAdd               0      0.00%     79.56% # attempts to use FU when none available (Count)
system.cpu0.statFuBusy::SimdReduceAlu               0      0.00%     79.56% # attempts to use FU when none available (Count)
system.cpu0.statFuBusy::SimdReduceCmp               0      0.00%     79.56% # attempts to use FU when none available (Count)
system.cpu0.statFuBusy::SimdFloatReduceAdd            0      0.00%     79.56% # attempts to use FU when none available (Count)
system.cpu0.statFuBusy::SimdFloatReduceCmp            0      0.00%     79.56% # attempts to use FU when none available (Count)
system.cpu0.statFuBusy::SimdAes                     0      0.00%     79.56% # attempts to use FU when none available (Count)
system.cpu0.statFuBusy::SimdAesMix                  0      0.00%     79.56% # attempts to use FU when none available (Count)
system.cpu0.statFuBusy::SimdSha1Hash                0      0.00%     79.56% # attempts to use FU when none available (Count)
system.cpu0.statFuBusy::SimdSha1Hash2               0      0.00%     79.56% # attempts to use FU when none available (Count)
system.cpu0.statFuBusy::SimdSha256Hash              0      0.00%     79.56% # attempts to use FU when none available (Count)
system.cpu0.statFuBusy::SimdSha256Hash2             0      0.00%     79.56% # attempts to use FU when none available (Count)
system.cpu0.statFuBusy::SimdShaSigma2               0      0.00%     79.56% # attempts to use FU when none available (Count)
system.cpu0.statFuBusy::SimdShaSigma3               0      0.00%     79.56% # attempts to use FU when none available (Count)
system.cpu0.statFuBusy::SimdPredAlu                 0      0.00%     79.56% # attempts to use FU when none available (Count)
system.cpu0.statFuBusy::MemRead                379966     12.11%     91.68% # attempts to use FU when none available (Count)
system.cpu0.statFuBusy::MemWrite               158059      5.04%     96.71% # attempts to use FU when none available (Count)
system.cpu0.statFuBusy::FloatMemRead            67841      2.16%     98.88% # attempts to use FU when none available (Count)
system.cpu0.statFuBusy::FloatMemWrite           35283      1.12%    100.00% # attempts to use FU when none available (Count)
system.cpu0.statFuBusy::IprAccess                   0      0.00%    100.00% # attempts to use FU when none available (Count)
system.cpu0.statFuBusy::InstPrefetch                0      0.00%    100.00% # attempts to use FU when none available (Count)
system.cpu0.statIssuedInstType_0::No_OpClass         2455      0.00%      0.00% # Number of instructions issued per FU type, per thread (Count)
system.cpu0.statIssuedInstType_0::IntAlu     91976685     36.37%     36.37% # Number of instructions issued per FU type, per thread (Count)
system.cpu0.statIssuedInstType_0::IntMult       456166      0.18%     36.55% # Number of instructions issued per FU type, per thread (Count)
system.cpu0.statIssuedInstType_0::IntDiv        23319      0.01%     36.56% # Number of instructions issued per FU type, per thread (Count)
system.cpu0.statIssuedInstType_0::FloatAdd     42003746     16.61%     53.17% # Number of instructions issued per FU type, per thread (Count)
system.cpu0.statIssuedInstType_0::FloatCmp         4091      0.00%     53.17% # Number of instructions issued per FU type, per thread (Count)
system.cpu0.statIssuedInstType_0::FloatCvt       144315      0.06%     53.22% # Number of instructions issued per FU type, per thread (Count)
system.cpu0.statIssuedInstType_0::FloatMult     41483003     16.40%     69.63% # Number of instructions issued per FU type, per thread (Count)
system.cpu0.statIssuedInstType_0::FloatMultAcc            0      0.00%     69.63% # Number of instructions issued per FU type, per thread (Count)
system.cpu0.statIssuedInstType_0::FloatDiv        59761      0.02%     69.65% # Number of instructions issued per FU type, per thread (Count)
system.cpu0.statIssuedInstType_0::FloatMisc           20      0.00%     69.65% # Number of instructions issued per FU type, per thread (Count)
system.cpu0.statIssuedInstType_0::FloatSqrt         1984      0.00%     69.65% # Number of instructions issued per FU type, per thread (Count)
system.cpu0.statIssuedInstType_0::SimdAdd            0      0.00%     69.65% # Number of instructions issued per FU type, per thread (Count)
system.cpu0.statIssuedInstType_0::SimdAddAcc            0      0.00%     69.65% # Number of instructions issued per FU type, per thread (Count)
system.cpu0.statIssuedInstType_0::SimdAlu            0      0.00%     69.65% # Number of instructions issued per FU type, per thread (Count)
system.cpu0.statIssuedInstType_0::SimdCmp            0      0.00%     69.65% # Number of instructions issued per FU type, per thread (Count)
system.cpu0.statIssuedInstType_0::SimdCvt            0      0.00%     69.65% # Number of instructions issued per FU type, per thread (Count)
system.cpu0.statIssuedInstType_0::SimdMisc            0      0.00%     69.65% # Number of instructions issued per FU type, per thread (Count)
system.cpu0.statIssuedInstType_0::SimdMult            0      0.00%     69.65% # Number of instructions issued per FU type, per thread (Count)
system.cpu0.statIssuedInstType_0::SimdMultAcc            0      0.00%     69.65% # Number of instructions issued per FU type, per thread (Count)
system.cpu0.statIssuedInstType_0::SimdShift            0      0.00%     69.65% # Number of instructions issued per FU type, per thread (Count)
system.cpu0.statIssuedInstType_0::SimdShiftAcc            0      0.00%     69.65% # Number of instructions issued per FU type, per thread (Count)
system.cpu0.statIssuedInstType_0::SimdDiv            0      0.00%     69.65% # Number of instructions issued per FU type, per thread (Count)
system.cpu0.statIssuedInstType_0::SimdSqrt            0      0.00%     69.65% # Number of instructions issued per FU type, per thread (Count)
system.cpu0.statIssuedInstType_0::SimdFloatAdd            0      0.00%     69.65% # Number of instructions issued per FU type, per thread (Count)
system.cpu0.statIssuedInstType_0::SimdFloatAlu            0      0.00%     69.65% # Number of instructions issued per FU type, per thread (Count)
system.cpu0.statIssuedInstType_0::SimdFloatCmp            0      0.00%     69.65% # Number of instructions issued per FU type, per thread (Count)
system.cpu0.statIssuedInstType_0::SimdFloatCvt            0      0.00%     69.65% # Number of instructions issued per FU type, per thread (Count)
system.cpu0.statIssuedInstType_0::SimdFloatDiv            0      0.00%     69.65% # Number of instructions issued per FU type, per thread (Count)
system.cpu0.statIssuedInstType_0::SimdFloatMisc            0      0.00%     69.65% # Number of instructions issued per FU type, per thread (Count)
system.cpu0.statIssuedInstType_0::SimdFloatMult            0      0.00%     69.65% # Number of instructions issued per FU type, per thread (Count)
system.cpu0.statIssuedInstType_0::SimdFloatMultAcc            0      0.00%     69.65% # Number of instructions issued per FU type, per thread (Count)
system.cpu0.statIssuedInstType_0::SimdFloatSqrt            0      0.00%     69.65% # Number of instructions issued per FU type, per thread (Count)
system.cpu0.statIssuedInstType_0::SimdReduceAdd            0      0.00%     69.65% # Number of instructions issued per FU type, per thread (Count)
system.cpu0.statIssuedInstType_0::SimdReduceAlu            0      0.00%     69.65% # Number of instructions issued per FU type, per thread (Count)
system.cpu0.statIssuedInstType_0::SimdReduceCmp            0      0.00%     69.65% # Number of instructions issued per FU type, per thread (Count)
system.cpu0.statIssuedInstType_0::SimdFloatReduceAdd            0      0.00%     69.65% # Number of instructions issued per FU type, per thread (Count)
system.cpu0.statIssuedInstType_0::SimdFloatReduceCmp            0      0.00%     69.65% # Number of instructions issued per FU type, per thread (Count)
system.cpu0.statIssuedInstType_0::SimdAes            0      0.00%     69.65% # Number of instructions issued per FU type, per thread (Count)
system.cpu0.statIssuedInstType_0::SimdAesMix            0      0.00%     69.65% # Number of instructions issued per FU type, per thread (Count)
system.cpu0.statIssuedInstType_0::SimdSha1Hash            0      0.00%     69.65% # Number of instructions issued per FU type, per thread (Count)
system.cpu0.statIssuedInstType_0::SimdSha1Hash2            0      0.00%     69.65% # Number of instructions issued per FU type, per thread (Count)
system.cpu0.statIssuedInstType_0::SimdSha256Hash            0      0.00%     69.65% # Number of instructions issued per FU type, per thread (Count)
system.cpu0.statIssuedInstType_0::SimdSha256Hash2            0      0.00%     69.65% # Number of instructions issued per FU type, per thread (Count)
system.cpu0.statIssuedInstType_0::SimdShaSigma2            0      0.00%     69.65% # Number of instructions issued per FU type, per thread (Count)
system.cpu0.statIssuedInstType_0::SimdShaSigma3            0      0.00%     69.65% # Number of instructions issued per FU type, per thread (Count)
system.cpu0.statIssuedInstType_0::SimdPredAlu            0      0.00%     69.65% # Number of instructions issued per FU type, per thread (Count)
system.cpu0.statIssuedInstType_0::MemRead     21622747      8.55%     78.20% # Number of instructions issued per FU type, per thread (Count)
system.cpu0.statIssuedInstType_0::MemWrite      7663309      3.03%     81.23% # Number of instructions issued per FU type, per thread (Count)
system.cpu0.statIssuedInstType_0::FloatMemRead     34072182     13.47%     94.70% # Number of instructions issued per FU type, per thread (Count)
system.cpu0.statIssuedInstType_0::FloatMemWrite     13397191      5.30%    100.00% # Number of instructions issued per FU type, per thread (Count)
system.cpu0.statIssuedInstType_0::IprAccess            0      0.00%    100.00% # Number of instructions issued per FU type, per thread (Count)
system.cpu0.statIssuedInstType_0::InstPrefetch            0      0.00%    100.00% # Number of instructions issued per FU type, per thread (Count)
system.cpu0.statIssuedInstType_0::total     252910974                       # Number of instructions issued per FU type, per thread (Count)
system.cpu0.issueRate                        1.509604                       # Inst issue rate ((Count/Cycle))
system.cpu0.fuBusy                            3137502                       # FU busy when requested (Count)
system.cpu0.fuBusyRate                       0.012406                       # FU busy rate (busy events/executed inst) ((Count/Count))
system.cpu0.intInstQueueReads               411789525                       # Number of integer instruction queue reads (Count)
system.cpu0.intInstQueueWrites              138132184                       # Number of integer instruction queue writes (Count)
system.cpu0.intInstQueueWakeupAccesses      120531881                       # Number of integer instruction queue wakeup accesses (Count)
system.cpu0.fpInstQueueReads                264507131                       # Number of floating instruction queue reads (Count)
system.cpu0.fpInstQueueWrites               131949736                       # Number of floating instruction queue writes (Count)
system.cpu0.fpInstQueueWakeupAccesses       130996532                       # Number of floating instruction queue wakeup accesses (Count)
system.cpu0.vecInstQueueReads                       0                       # Number of vector instruction queue reads (Count)
system.cpu0.vecInstQueueWrites                      0                       # Number of vector instruction queue writes (Count)
system.cpu0.vecInstQueueWakeupAccesses              0                       # Number of vector instruction queue wakeup accesses (Count)
system.cpu0.intAluAccesses                  122707392                       # Number of integer alu accesses (Count)
system.cpu0.fpAluAccesses                   133338629                       # Number of floating point alu accesses (Count)
system.cpu0.vecAluAccesses                          0                       # Number of vector alu accesses (Count)
system.cpu0.numInsts                        252441233                       # Number of executed instructions (Count)
system.cpu0.numLoadInsts                     55498200                       # Number of load instructions executed (Count)
system.cpu0.numSquashedInsts                   469741                       # Number of squashed instructions skipped in execute (Count)
system.cpu0.numSwp                                  0                       # Number of swp insts executed (Count)
system.cpu0.numNop                                  0                       # Number of nop insts executed (Count)
system.cpu0.numRefs                          76498785                       # Number of memory reference insts executed (Count)
system.cpu0.numBranches                      19980078                       # Number of branches executed (Count)
system.cpu0.numStoreInsts                    21000585                       # Number of stores executed (Count)
system.cpu0.numRate                          1.506800                       # Inst execution rate ((Count/Cycle))
system.cpu0.timesIdled                           1587                       # Number of times that the entire CPU went into an idle state and unscheduled itself (Count)
system.cpu0.idleCycles                         238146                       # Total number of cycles that the CPU has spent unscheduled due to idling (Cycle)
system.cpu0.quiesceCycles                     7237912                       # Total number of cycles that CPU has spent quiesced or waiting for an interrupt (Cycle)
system.cpu0.committedInsts                  246134249                       # Number of Instructions Simulated (Count)
system.cpu0.committedOps                    246135195                       # Number of Ops (including micro ops) Simulated (Count)
system.cpu0.cpi                              0.680664                       # CPI: Cycles Per Instruction ((Cycle/Count))
system.cpu0.totalCpi                         0.680664                       # CPI: Total CPI of All Threads ((Cycle/Count))
system.cpu0.ipc                              1.469154                       # IPC: Instructions Per Cycle ((Count/Cycle))
system.cpu0.totalIpc                         1.469154                       # IPC: Total IPC of All Threads ((Count/Cycle))
system.cpu0.intRegfileReads                 209380126                       # Number of integer regfile reads (Count)
system.cpu0.intRegfileWrites                 93472774                       # Number of integer regfile writes (Count)
system.cpu0.fpRegfileReads                  180483399                       # Number of floating regfile reads (Count)
system.cpu0.fpRegfileWrites                 117605553                       # Number of floating regfile writes (Count)
system.cpu0.miscRegfileReads                298263791                       # number of misc regfile reads (Count)
system.cpu0.miscRegfileWrites                83622098                       # number of misc regfile writes (Count)
system.cpu0.MemDepUnit__0.insertedLoads      56660988                       # Number of loads inserted to the mem dependence unit. (Count)
system.cpu0.MemDepUnit__0.insertedStores     21587941                       # Number of stores inserted to the mem dependence unit. (Count)
system.cpu0.MemDepUnit__0.conflictingLoads     15236506                       # Number of conflicting loads. (Count)
system.cpu0.MemDepUnit__0.conflictingStores     14219126                       # Number of conflicting stores. (Count)
system.cpu0.MemDepUnit__1.insertedLoads             0                       # Number of loads inserted to the mem dependence unit. (Count)
system.cpu0.MemDepUnit__1.insertedStores            0                       # Number of stores inserted to the mem dependence unit. (Count)
system.cpu0.MemDepUnit__1.conflictingLoads            0                       # Number of conflicting loads. (Count)
system.cpu0.MemDepUnit__1.conflictingStores            0                       # Number of conflicting stores. (Count)
system.cpu0.MemDepUnit__2.insertedLoads             0                       # Number of loads inserted to the mem dependence unit. (Count)
system.cpu0.MemDepUnit__2.insertedStores            0                       # Number of stores inserted to the mem dependence unit. (Count)
system.cpu0.MemDepUnit__2.conflictingLoads            0                       # Number of conflicting loads. (Count)
system.cpu0.MemDepUnit__2.conflictingStores            0                       # Number of conflicting stores. (Count)
system.cpu0.MemDepUnit__3.insertedLoads             0                       # Number of loads inserted to the mem dependence unit. (Count)
system.cpu0.MemDepUnit__3.insertedStores            0                       # Number of stores inserted to the mem dependence unit. (Count)
system.cpu0.MemDepUnit__3.conflictingLoads            0                       # Number of conflicting loads. (Count)
system.cpu0.MemDepUnit__3.conflictingStores            0                       # Number of conflicting stores. (Count)
system.cpu0.branchPred.lookups               22525098                       # Number of BP lookups (Count)
system.cpu0.branchPred.condPredicted         21295604                       # Number of conditional branches predicted (Count)
system.cpu0.branchPred.condIncorrect           367151                       # Number of conditional branches incorrect (Count)
system.cpu0.branchPred.BTBLookups            15110498                       # Number of BTB lookups (Count)
system.cpu0.branchPred.BTBHits               15100617                       # Number of BTB hits (Count)
system.cpu0.branchPred.BTBHitRatio           0.999346                       # BTB Hit Ratio (Ratio)
system.cpu0.branchPred.RASUsed                 395357                       # Number of times the RAS was used to get a target. (Count)
system.cpu0.branchPred.RASIncorrect                41                       # Number of incorrect RAS predictions. (Count)
system.cpu0.branchPred.indirectLookups           6221                       # Number of indirect predictor lookups. (Count)
system.cpu0.branchPred.indirectHits              5733                       # Number of indirect target hits. (Count)
system.cpu0.branchPred.indirectMisses             488                       # Number of indirect misses. (Count)
system.cpu0.branchPred.indirectMispredicted          229                       # Number of mispredicted indirect branches. (Count)
system.cpu0.commit.commitSquashedInsts       11966870                       # The number of squashed insts skipped by commit (Count)
system.cpu0.commit.commitNonSpecStalls           4293                       # The number of times commit has been forced to stall to communicate backwards (Count)
system.cpu0.commit.branchMispredicts           364133                       # The number of times a branch was mispredicted (Count)
system.cpu0.commit.numCommittedDist::samples    165544075                       # Number of insts commited each cycle (Count)
system.cpu0.commit.numCommittedDist::mean     1.486826                       # Number of insts commited each cycle (Count)
system.cpu0.commit.numCommittedDist::stdev     2.535168                       # Number of insts commited each cycle (Count)
system.cpu0.commit.numCommittedDist::underflows            0      0.00%      0.00% # Number of insts commited each cycle (Count)
system.cpu0.commit.numCommittedDist::0      103473472     62.51%     62.51% # Number of insts commited each cycle (Count)
system.cpu0.commit.numCommittedDist::1       16821351     10.16%     72.67% # Number of insts commited each cycle (Count)
system.cpu0.commit.numCommittedDist::2       12820018      7.74%     80.41% # Number of insts commited each cycle (Count)
system.cpu0.commit.numCommittedDist::3        2918749      1.76%     82.17% # Number of insts commited each cycle (Count)
system.cpu0.commit.numCommittedDist::4        2691132      1.63%     83.80% # Number of insts commited each cycle (Count)
system.cpu0.commit.numCommittedDist::5        4011050      2.42%     86.22% # Number of insts commited each cycle (Count)
system.cpu0.commit.numCommittedDist::6        4008990      2.42%     88.64% # Number of insts commited each cycle (Count)
system.cpu0.commit.numCommittedDist::7       10350661      6.25%     94.90% # Number of insts commited each cycle (Count)
system.cpu0.commit.numCommittedDist::8        8448652      5.10%    100.00% # Number of insts commited each cycle (Count)
system.cpu0.commit.numCommittedDist::overflows            0      0.00%    100.00% # Number of insts commited each cycle (Count)
system.cpu0.commit.numCommittedDist::min_value            0                       # Number of insts commited each cycle (Count)
system.cpu0.commit.numCommittedDist::max_value            8                       # Number of insts commited each cycle (Count)
system.cpu0.commit.numCommittedDist::total    165544075                       # Number of insts commited each cycle (Count)
system.cpu0.commit.instsCommitted           246134249                       # Number of instructions committed (Count)
system.cpu0.commit.opsCommitted             246135195                       # Number of ops (including micro ops) committed (Count)
system.cpu0.commit.memRefs                   74330040                       # Number of memory references committed (Count)
system.cpu0.commit.loads                     53634975                       # Number of loads committed (Count)
system.cpu0.commit.amos                          1018                       # Number of atomic instructions committed (Count)
system.cpu0.commit.membars                       1875                       # Number of memory barriers committed (Count)
system.cpu0.commit.branches                  18986307                       # Number of branches committed (Count)
system.cpu0.commit.vectorInstructions               0                       # Number of committed Vector instructions. (Count)
system.cpu0.commit.floating                 130865874                       # Number of committed floating point instructions. (Count)
system.cpu0.commit.integer                  162285629                       # Number of committed integer instructions. (Count)
system.cpu0.commit.functionCalls               346140                       # Number of function calls committed. (Count)
system.cpu0.commit.committedInstType_0::No_OpClass         2314      0.00%      0.00% # Class of committed instruction (Count)
system.cpu0.commit.committedInstType_0::IntAlu     87723325     35.64%     35.64% # Class of committed instruction (Count)
system.cpu0.commit.committedInstType_0::IntMult       435505      0.18%     35.82% # Class of committed instruction (Count)
system.cpu0.commit.committedInstType_0::IntDiv        21913      0.01%     35.83% # Class of committed instruction (Count)
system.cpu0.commit.committedInstType_0::FloatAdd     41985753     17.06%     52.89% # Class of committed instruction (Count)
system.cpu0.commit.committedInstType_0::FloatCmp         4054      0.00%     52.89% # Class of committed instruction (Count)
system.cpu0.commit.committedInstType_0::FloatCvt       125566      0.05%     52.94% # Class of committed instruction (Count)
system.cpu0.commit.committedInstType_0::FloatMult     41448642     16.84%     69.78% # Class of committed instruction (Count)
system.cpu0.commit.committedInstType_0::FloatMultAcc            0      0.00%     69.78% # Class of committed instruction (Count)
system.cpu0.commit.committedInstType_0::FloatDiv        56109      0.02%     69.80% # Class of committed instruction (Count)
system.cpu0.commit.committedInstType_0::FloatMisc           18      0.00%     69.80% # Class of committed instruction (Count)
system.cpu0.commit.committedInstType_0::FloatSqrt         1956      0.00%     69.80% # Class of committed instruction (Count)
system.cpu0.commit.committedInstType_0::SimdAdd            0      0.00%     69.80% # Class of committed instruction (Count)
system.cpu0.commit.committedInstType_0::SimdAddAcc            0      0.00%     69.80% # Class of committed instruction (Count)
system.cpu0.commit.committedInstType_0::SimdAlu            0      0.00%     69.80% # Class of committed instruction (Count)
system.cpu0.commit.committedInstType_0::SimdCmp            0      0.00%     69.80% # Class of committed instruction (Count)
system.cpu0.commit.committedInstType_0::SimdCvt            0      0.00%     69.80% # Class of committed instruction (Count)
system.cpu0.commit.committedInstType_0::SimdMisc            0      0.00%     69.80% # Class of committed instruction (Count)
system.cpu0.commit.committedInstType_0::SimdMult            0      0.00%     69.80% # Class of committed instruction (Count)
system.cpu0.commit.committedInstType_0::SimdMultAcc            0      0.00%     69.80% # Class of committed instruction (Count)
system.cpu0.commit.committedInstType_0::SimdShift            0      0.00%     69.80% # Class of committed instruction (Count)
system.cpu0.commit.committedInstType_0::SimdShiftAcc            0      0.00%     69.80% # Class of committed instruction (Count)
system.cpu0.commit.committedInstType_0::SimdDiv            0      0.00%     69.80% # Class of committed instruction (Count)
system.cpu0.commit.committedInstType_0::SimdSqrt            0      0.00%     69.80% # Class of committed instruction (Count)
system.cpu0.commit.committedInstType_0::SimdFloatAdd            0      0.00%     69.80% # Class of committed instruction (Count)
system.cpu0.commit.committedInstType_0::SimdFloatAlu            0      0.00%     69.80% # Class of committed instruction (Count)
system.cpu0.commit.committedInstType_0::SimdFloatCmp            0      0.00%     69.80% # Class of committed instruction (Count)
system.cpu0.commit.committedInstType_0::SimdFloatCvt            0      0.00%     69.80% # Class of committed instruction (Count)
system.cpu0.commit.committedInstType_0::SimdFloatDiv            0      0.00%     69.80% # Class of committed instruction (Count)
system.cpu0.commit.committedInstType_0::SimdFloatMisc            0      0.00%     69.80% # Class of committed instruction (Count)
system.cpu0.commit.committedInstType_0::SimdFloatMult            0      0.00%     69.80% # Class of committed instruction (Count)
system.cpu0.commit.committedInstType_0::SimdFloatMultAcc            0      0.00%     69.80% # Class of committed instruction (Count)
system.cpu0.commit.committedInstType_0::SimdFloatSqrt            0      0.00%     69.80% # Class of committed instruction (Count)
system.cpu0.commit.committedInstType_0::SimdReduceAdd            0      0.00%     69.80% # Class of committed instruction (Count)
system.cpu0.commit.committedInstType_0::SimdReduceAlu            0      0.00%     69.80% # Class of committed instruction (Count)
system.cpu0.commit.committedInstType_0::SimdReduceCmp            0      0.00%     69.80% # Class of committed instruction (Count)
system.cpu0.commit.committedInstType_0::SimdFloatReduceAdd            0      0.00%     69.80% # Class of committed instruction (Count)
system.cpu0.commit.committedInstType_0::SimdFloatReduceCmp            0      0.00%     69.80% # Class of committed instruction (Count)
system.cpu0.commit.committedInstType_0::SimdAes            0      0.00%     69.80% # Class of committed instruction (Count)
system.cpu0.commit.committedInstType_0::SimdAesMix            0      0.00%     69.80% # Class of committed instruction (Count)
system.cpu0.commit.committedInstType_0::SimdSha1Hash            0      0.00%     69.80% # Class of committed instruction (Count)
system.cpu0.commit.committedInstType_0::SimdSha1Hash2            0      0.00%     69.80% # Class of committed instruction (Count)
system.cpu0.commit.committedInstType_0::SimdSha256Hash            0      0.00%     69.80% # Class of committed instruction (Count)
system.cpu0.commit.committedInstType_0::SimdSha256Hash2            0      0.00%     69.80% # Class of committed instruction (Count)
system.cpu0.commit.committedInstType_0::SimdShaSigma2            0      0.00%     69.80% # Class of committed instruction (Count)
system.cpu0.commit.committedInstType_0::SimdShaSigma3            0      0.00%     69.80% # Class of committed instruction (Count)
system.cpu0.commit.committedInstType_0::SimdPredAlu            0      0.00%     69.80% # Class of committed instruction (Count)
system.cpu0.commit.committedInstType_0::MemRead     19770803      8.03%     77.83% # Class of committed instruction (Count)
system.cpu0.commit.committedInstType_0::MemWrite      7315461      2.97%     80.81% # Class of committed instruction (Count)
system.cpu0.commit.committedInstType_0::FloatMemRead     33865190     13.76%     94.56% # Class of committed instruction (Count)
system.cpu0.commit.committedInstType_0::FloatMemWrite     13378586      5.44%    100.00% # Class of committed instruction (Count)
system.cpu0.commit.committedInstType_0::IprAccess            0      0.00%    100.00% # Class of committed instruction (Count)
system.cpu0.commit.committedInstType_0::InstPrefetch            0      0.00%    100.00% # Class of committed instruction (Count)
system.cpu0.commit.committedInstType_0::total    246135195                       # Class of committed instruction (Count)
system.cpu0.commit.commitEligibleSamples      8448652                       # number cycles where commit BW limit reached (Cycle)
system.cpu0.dcache.demandHits::cpu0.data     69343155                       # number of demand (read+write) hits (Count)
system.cpu0.dcache.demandHits::total         69343155                       # number of demand (read+write) hits (Count)
system.cpu0.dcache.overallHits::cpu0.data     69343155                       # number of overall hits (Count)
system.cpu0.dcache.overallHits::total        69343155                       # number of overall hits (Count)
system.cpu0.dcache.demandMisses::cpu0.data      5054590                       # number of demand (read+write) misses (Count)
system.cpu0.dcache.demandMisses::total        5054590                       # number of demand (read+write) misses (Count)
system.cpu0.dcache.overallMisses::cpu0.data      5054590                       # number of overall misses (Count)
system.cpu0.dcache.overallMisses::total       5054590                       # number of overall misses (Count)
system.cpu0.dcache.demandMissLatency::cpu0.data 247799840759                       # number of demand (read+write) miss ticks (Tick)
system.cpu0.dcache.demandMissLatency::total 247799840759                       # number of demand (read+write) miss ticks (Tick)
system.cpu0.dcache.overallMissLatency::cpu0.data 247799840759                       # number of overall miss ticks (Tick)
system.cpu0.dcache.overallMissLatency::total 247799840759                       # number of overall miss ticks (Tick)
system.cpu0.dcache.demandAccesses::cpu0.data     74397745                       # number of demand (read+write) accesses (Count)
system.cpu0.dcache.demandAccesses::total     74397745                       # number of demand (read+write) accesses (Count)
system.cpu0.dcache.overallAccesses::cpu0.data     74397745                       # number of overall (read+write) accesses (Count)
system.cpu0.dcache.overallAccesses::total     74397745                       # number of overall (read+write) accesses (Count)
system.cpu0.dcache.demandMissRate::cpu0.data     0.067940                       # miss rate for demand accesses (Ratio)
system.cpu0.dcache.demandMissRate::total     0.067940                       # miss rate for demand accesses (Ratio)
system.cpu0.dcache.overallMissRate::cpu0.data     0.067940                       # miss rate for overall accesses (Ratio)
system.cpu0.dcache.overallMissRate::total     0.067940                       # miss rate for overall accesses (Ratio)
system.cpu0.dcache.demandAvgMissLatency::cpu0.data 49024.716299                       # average overall miss latency in ticks ((Tick/Count))
system.cpu0.dcache.demandAvgMissLatency::total 49024.716299                       # average overall miss latency in ticks ((Tick/Count))
system.cpu0.dcache.overallAvgMissLatency::cpu0.data 49024.716299                       # average overall miss latency ((Tick/Count))
system.cpu0.dcache.overallAvgMissLatency::total 49024.716299                       # average overall miss latency ((Tick/Count))
system.cpu0.dcache.blockedCycles::no_mshrs      7513980                       # number of cycles access was blocked (Cycle)
system.cpu0.dcache.blockedCycles::no_targets         9343                       # number of cycles access was blocked (Cycle)
system.cpu0.dcache.blockedCauses::no_mshrs       115093                       # number of times access was blocked (Count)
system.cpu0.dcache.blockedCauses::no_targets          147                       # number of times access was blocked (Count)
system.cpu0.dcache.avgBlocked::no_mshrs     65.286160                       # average number of cycles each access was blocked ((Cycle/Count))
system.cpu0.dcache.avgBlocked::no_targets    63.557823                       # average number of cycles each access was blocked ((Cycle/Count))
system.cpu0.dcache.writebacks::writebacks      1604329                       # number of writebacks (Count)
system.cpu0.dcache.writebacks::total          1604329                       # number of writebacks (Count)
system.cpu0.dcache.demandMshrHits::cpu0.data      3289444                       # number of demand (read+write) MSHR hits (Count)
system.cpu0.dcache.demandMshrHits::total      3289444                       # number of demand (read+write) MSHR hits (Count)
system.cpu0.dcache.overallMshrHits::cpu0.data      3289444                       # number of overall MSHR hits (Count)
system.cpu0.dcache.overallMshrHits::total      3289444                       # number of overall MSHR hits (Count)
system.cpu0.dcache.demandMshrMisses::cpu0.data      1765146                       # number of demand (read+write) MSHR misses (Count)
system.cpu0.dcache.demandMshrMisses::total      1765146                       # number of demand (read+write) MSHR misses (Count)
system.cpu0.dcache.overallMshrMisses::cpu0.data      1765146                       # number of overall MSHR misses (Count)
system.cpu0.dcache.overallMshrMisses::total      1765146                       # number of overall MSHR misses (Count)
system.cpu0.dcache.demandMshrMissLatency::cpu0.data  48376436045                       # number of demand (read+write) MSHR miss ticks (Tick)
system.cpu0.dcache.demandMshrMissLatency::total  48376436045                       # number of demand (read+write) MSHR miss ticks (Tick)
system.cpu0.dcache.overallMshrMissLatency::cpu0.data  48376436045                       # number of overall MSHR miss ticks (Tick)
system.cpu0.dcache.overallMshrMissLatency::total  48376436045                       # number of overall MSHR miss ticks (Tick)
system.cpu0.dcache.demandMshrMissRate::cpu0.data     0.023726                       # mshr miss ratio for demand accesses (Ratio)
system.cpu0.dcache.demandMshrMissRate::total     0.023726                       # mshr miss ratio for demand accesses (Ratio)
system.cpu0.dcache.overallMshrMissRate::cpu0.data     0.023726                       # mshr miss ratio for overall accesses (Ratio)
system.cpu0.dcache.overallMshrMissRate::total     0.023726                       # mshr miss ratio for overall accesses (Ratio)
system.cpu0.dcache.demandAvgMshrMissLatency::cpu0.data 27406.478583                       # average overall mshr miss latency ((Tick/Count))
system.cpu0.dcache.demandAvgMshrMissLatency::total 27406.478583                       # average overall mshr miss latency ((Tick/Count))
system.cpu0.dcache.overallAvgMshrMissLatency::cpu0.data 27406.478583                       # average overall mshr miss latency ((Tick/Count))
system.cpu0.dcache.overallAvgMshrMissLatency::total 27406.478583                       # average overall mshr miss latency ((Tick/Count))
system.cpu0.dcache.replacements               1762158                       # number of replacements (Count)
system.cpu0.dcache.LoadLockedReq.hits::cpu0.data          841                       # number of LoadLockedReq hits (Count)
system.cpu0.dcache.LoadLockedReq.hits::total          841                       # number of LoadLockedReq hits (Count)
system.cpu0.dcache.LoadLockedReq.misses::cpu0.data          111                       # number of LoadLockedReq misses (Count)
system.cpu0.dcache.LoadLockedReq.misses::total          111                       # number of LoadLockedReq misses (Count)
system.cpu0.dcache.LoadLockedReq.missLatency::cpu0.data      2826012                       # number of LoadLockedReq miss ticks (Tick)
system.cpu0.dcache.LoadLockedReq.missLatency::total      2826012                       # number of LoadLockedReq miss ticks (Tick)
system.cpu0.dcache.LoadLockedReq.accesses::cpu0.data          952                       # number of LoadLockedReq accesses(hits+misses) (Count)
system.cpu0.dcache.LoadLockedReq.accesses::total          952                       # number of LoadLockedReq accesses(hits+misses) (Count)
system.cpu0.dcache.LoadLockedReq.missRate::cpu0.data     0.116597                       # miss rate for LoadLockedReq accesses (Ratio)
system.cpu0.dcache.LoadLockedReq.missRate::total     0.116597                       # miss rate for LoadLockedReq accesses (Ratio)
system.cpu0.dcache.LoadLockedReq.avgMissLatency::cpu0.data 25459.567568                       # average LoadLockedReq miss latency ((Tick/Count))
system.cpu0.dcache.LoadLockedReq.avgMissLatency::total 25459.567568                       # average LoadLockedReq miss latency ((Tick/Count))
system.cpu0.dcache.LoadLockedReq.mshrHits::cpu0.data           94                       # number of LoadLockedReq MSHR hits (Count)
system.cpu0.dcache.LoadLockedReq.mshrHits::total           94                       # number of LoadLockedReq MSHR hits (Count)
system.cpu0.dcache.LoadLockedReq.mshrMisses::cpu0.data           17                       # number of LoadLockedReq MSHR misses (Count)
system.cpu0.dcache.LoadLockedReq.mshrMisses::total           17                       # number of LoadLockedReq MSHR misses (Count)
system.cpu0.dcache.LoadLockedReq.mshrMissLatency::cpu0.data       893571                       # number of LoadLockedReq MSHR miss ticks (Tick)
system.cpu0.dcache.LoadLockedReq.mshrMissLatency::total       893571                       # number of LoadLockedReq MSHR miss ticks (Tick)
system.cpu0.dcache.LoadLockedReq.mshrMissRate::cpu0.data     0.017857                       # mshr miss rate for LoadLockedReq accesses (Ratio)
system.cpu0.dcache.LoadLockedReq.mshrMissRate::total     0.017857                       # mshr miss rate for LoadLockedReq accesses (Ratio)
system.cpu0.dcache.LoadLockedReq.avgMshrMissLatency::cpu0.data        52563                       # average LoadLockedReq mshr miss latency ((Tick/Count))
system.cpu0.dcache.LoadLockedReq.avgMshrMissLatency::total        52563                       # average LoadLockedReq mshr miss latency ((Tick/Count))
system.cpu0.dcache.ReadReq.hits::cpu0.data     50948928                       # number of ReadReq hits (Count)
system.cpu0.dcache.ReadReq.hits::total       50948928                       # number of ReadReq hits (Count)
system.cpu0.dcache.ReadReq.misses::cpu0.data      2755590                       # number of ReadReq misses (Count)
system.cpu0.dcache.ReadReq.misses::total      2755590                       # number of ReadReq misses (Count)
system.cpu0.dcache.ReadReq.missLatency::cpu0.data  88807999728                       # number of ReadReq miss ticks (Tick)
system.cpu0.dcache.ReadReq.missLatency::total  88807999728                       # number of ReadReq miss ticks (Tick)
system.cpu0.dcache.ReadReq.accesses::cpu0.data     53704518                       # number of ReadReq accesses(hits+misses) (Count)
system.cpu0.dcache.ReadReq.accesses::total     53704518                       # number of ReadReq accesses(hits+misses) (Count)
system.cpu0.dcache.ReadReq.missRate::cpu0.data     0.051310                       # miss rate for ReadReq accesses (Ratio)
system.cpu0.dcache.ReadReq.missRate::total     0.051310                       # miss rate for ReadReq accesses (Ratio)
system.cpu0.dcache.ReadReq.avgMissLatency::cpu0.data 32228.306725                       # average ReadReq miss latency ((Tick/Count))
system.cpu0.dcache.ReadReq.avgMissLatency::total 32228.306725                       # average ReadReq miss latency ((Tick/Count))
system.cpu0.dcache.ReadReq.mshrHits::cpu0.data      1306349                       # number of ReadReq MSHR hits (Count)
system.cpu0.dcache.ReadReq.mshrHits::total      1306349                       # number of ReadReq MSHR hits (Count)
system.cpu0.dcache.ReadReq.mshrMisses::cpu0.data      1449241                       # number of ReadReq MSHR misses (Count)
system.cpu0.dcache.ReadReq.mshrMisses::total      1449241                       # number of ReadReq MSHR misses (Count)
system.cpu0.dcache.ReadReq.mshrMissLatency::cpu0.data  25077434655                       # number of ReadReq MSHR miss ticks (Tick)
system.cpu0.dcache.ReadReq.mshrMissLatency::total  25077434655                       # number of ReadReq MSHR miss ticks (Tick)
system.cpu0.dcache.ReadReq.mshrMissRate::cpu0.data     0.026985                       # mshr miss rate for ReadReq accesses (Ratio)
system.cpu0.dcache.ReadReq.mshrMissRate::total     0.026985                       # mshr miss rate for ReadReq accesses (Ratio)
system.cpu0.dcache.ReadReq.avgMshrMissLatency::cpu0.data 17303.840186                       # average ReadReq mshr miss latency ((Tick/Count))
system.cpu0.dcache.ReadReq.avgMshrMissLatency::total 17303.840186                       # average ReadReq mshr miss latency ((Tick/Count))
system.cpu0.dcache.StoreCondFailReq.missLatency::cpu0.data        87822                       # number of StoreCondFailReq miss ticks (Tick)
system.cpu0.dcache.StoreCondFailReq.missLatency::total        87822                       # number of StoreCondFailReq miss ticks (Tick)
system.cpu0.dcache.StoreCondFailReq.avgMissLatency::cpu0.data          inf                       # average StoreCondFailReq miss latency ((Tick/Count))
system.cpu0.dcache.StoreCondFailReq.avgMissLatency::total          inf                       # average StoreCondFailReq miss latency ((Tick/Count))
system.cpu0.dcache.StoreCondFailReq.mshrMissLatency::cpu0.data        86394                       # number of StoreCondFailReq MSHR miss ticks (Tick)
system.cpu0.dcache.StoreCondFailReq.mshrMissLatency::total        86394                       # number of StoreCondFailReq MSHR miss ticks (Tick)
system.cpu0.dcache.StoreCondFailReq.avgMshrMissLatency::cpu0.data          inf                       # average StoreCondFailReq mshr miss latency ((Tick/Count))
system.cpu0.dcache.StoreCondFailReq.avgMshrMissLatency::total          inf                       # average StoreCondFailReq mshr miss latency ((Tick/Count))
system.cpu0.dcache.StoreCondReq.hits::cpu0.data          770                       # number of StoreCondReq hits (Count)
system.cpu0.dcache.StoreCondReq.hits::total          770                       # number of StoreCondReq hits (Count)
system.cpu0.dcache.StoreCondReq.misses::cpu0.data           48                       # number of StoreCondReq misses (Count)
system.cpu0.dcache.StoreCondReq.misses::total           48                       # number of StoreCondReq misses (Count)
system.cpu0.dcache.StoreCondReq.missLatency::cpu0.data      1114554                       # number of StoreCondReq miss ticks (Tick)
system.cpu0.dcache.StoreCondReq.missLatency::total      1114554                       # number of StoreCondReq miss ticks (Tick)
system.cpu0.dcache.StoreCondReq.accesses::cpu0.data          818                       # number of StoreCondReq accesses(hits+misses) (Count)
system.cpu0.dcache.StoreCondReq.accesses::total          818                       # number of StoreCondReq accesses(hits+misses) (Count)
system.cpu0.dcache.StoreCondReq.missRate::cpu0.data     0.058680                       # miss rate for StoreCondReq accesses (Ratio)
system.cpu0.dcache.StoreCondReq.missRate::total     0.058680                       # miss rate for StoreCondReq accesses (Ratio)
system.cpu0.dcache.StoreCondReq.avgMissLatency::cpu0.data 23219.875000                       # average StoreCondReq miss latency ((Tick/Count))
system.cpu0.dcache.StoreCondReq.avgMissLatency::total 23219.875000                       # average StoreCondReq miss latency ((Tick/Count))
system.cpu0.dcache.StoreCondReq.mshrMisses::cpu0.data           48                       # number of StoreCondReq MSHR misses (Count)
system.cpu0.dcache.StoreCondReq.mshrMisses::total           48                       # number of StoreCondReq MSHR misses (Count)
system.cpu0.dcache.StoreCondReq.mshrMissLatency::cpu0.data      1081710                       # number of StoreCondReq MSHR miss ticks (Tick)
system.cpu0.dcache.StoreCondReq.mshrMissLatency::total      1081710                       # number of StoreCondReq MSHR miss ticks (Tick)
system.cpu0.dcache.StoreCondReq.mshrMissRate::cpu0.data     0.058680                       # mshr miss rate for StoreCondReq accesses (Ratio)
system.cpu0.dcache.StoreCondReq.mshrMissRate::total     0.058680                       # mshr miss rate for StoreCondReq accesses (Ratio)
system.cpu0.dcache.StoreCondReq.avgMshrMissLatency::cpu0.data 22535.625000                       # average StoreCondReq mshr miss latency ((Tick/Count))
system.cpu0.dcache.StoreCondReq.avgMshrMissLatency::total 22535.625000                       # average StoreCondReq mshr miss latency ((Tick/Count))
system.cpu0.dcache.SwapReq.hits::cpu0.data          967                       # number of SwapReq hits (Count)
system.cpu0.dcache.SwapReq.hits::total            967                       # number of SwapReq hits (Count)
system.cpu0.dcache.SwapReq.misses::cpu0.data           51                       # number of SwapReq misses (Count)
system.cpu0.dcache.SwapReq.misses::total           51                       # number of SwapReq misses (Count)
system.cpu0.dcache.SwapReq.missLatency::cpu0.data      1414434                       # number of SwapReq miss ticks (Tick)
system.cpu0.dcache.SwapReq.missLatency::total      1414434                       # number of SwapReq miss ticks (Tick)
system.cpu0.dcache.SwapReq.accesses::cpu0.data         1018                       # number of SwapReq accesses(hits+misses) (Count)
system.cpu0.dcache.SwapReq.accesses::total         1018                       # number of SwapReq accesses(hits+misses) (Count)
system.cpu0.dcache.SwapReq.missRate::cpu0.data     0.050098                       # miss rate for SwapReq accesses (Ratio)
system.cpu0.dcache.SwapReq.missRate::total     0.050098                       # miss rate for SwapReq accesses (Ratio)
system.cpu0.dcache.SwapReq.avgMissLatency::cpu0.data        27734                       # average SwapReq miss latency ((Tick/Count))
system.cpu0.dcache.SwapReq.avgMissLatency::total        27734                       # average SwapReq miss latency ((Tick/Count))
system.cpu0.dcache.SwapReq.mshrMisses::cpu0.data           51                       # number of SwapReq MSHR misses (Count)
system.cpu0.dcache.SwapReq.mshrMisses::total           51                       # number of SwapReq MSHR misses (Count)
system.cpu0.dcache.SwapReq.mshrMissLatency::cpu0.data      1378020                       # number of SwapReq MSHR miss ticks (Tick)
system.cpu0.dcache.SwapReq.mshrMissLatency::total      1378020                       # number of SwapReq MSHR miss ticks (Tick)
system.cpu0.dcache.SwapReq.mshrMissRate::cpu0.data     0.050098                       # mshr miss rate for SwapReq accesses (Ratio)
system.cpu0.dcache.SwapReq.mshrMissRate::total     0.050098                       # mshr miss rate for SwapReq accesses (Ratio)
system.cpu0.dcache.SwapReq.avgMshrMissLatency::cpu0.data        27020                       # average SwapReq mshr miss latency ((Tick/Count))
system.cpu0.dcache.SwapReq.avgMshrMissLatency::total        27020                       # average SwapReq mshr miss latency ((Tick/Count))
system.cpu0.dcache.WriteReq.hits::cpu0.data     18394227                       # number of WriteReq hits (Count)
system.cpu0.dcache.WriteReq.hits::total      18394227                       # number of WriteReq hits (Count)
system.cpu0.dcache.WriteReq.misses::cpu0.data      2299000                       # number of WriteReq misses (Count)
system.cpu0.dcache.WriteReq.misses::total      2299000                       # number of WriteReq misses (Count)
system.cpu0.dcache.WriteReq.missLatency::cpu0.data 158991841031                       # number of WriteReq miss ticks (Tick)
system.cpu0.dcache.WriteReq.missLatency::total 158991841031                       # number of WriteReq miss ticks (Tick)
system.cpu0.dcache.WriteReq.accesses::cpu0.data     20693227                       # number of WriteReq accesses(hits+misses) (Count)
system.cpu0.dcache.WriteReq.accesses::total     20693227                       # number of WriteReq accesses(hits+misses) (Count)
system.cpu0.dcache.WriteReq.missRate::cpu0.data     0.111099                       # miss rate for WriteReq accesses (Ratio)
system.cpu0.dcache.WriteReq.missRate::total     0.111099                       # miss rate for WriteReq accesses (Ratio)
system.cpu0.dcache.WriteReq.avgMissLatency::cpu0.data 69156.955646                       # average WriteReq miss latency ((Tick/Count))
system.cpu0.dcache.WriteReq.avgMissLatency::total 69156.955646                       # average WriteReq miss latency ((Tick/Count))
system.cpu0.dcache.WriteReq.mshrHits::cpu0.data      1983095                       # number of WriteReq MSHR hits (Count)
system.cpu0.dcache.WriteReq.mshrHits::total      1983095                       # number of WriteReq MSHR hits (Count)
system.cpu0.dcache.WriteReq.mshrMisses::cpu0.data       315905                       # number of WriteReq MSHR misses (Count)
system.cpu0.dcache.WriteReq.mshrMisses::total       315905                       # number of WriteReq MSHR misses (Count)
system.cpu0.dcache.WriteReq.mshrMissLatency::cpu0.data  23299001390                       # number of WriteReq MSHR miss ticks (Tick)
system.cpu0.dcache.WriteReq.mshrMissLatency::total  23299001390                       # number of WriteReq MSHR miss ticks (Tick)
system.cpu0.dcache.WriteReq.mshrMissRate::cpu0.data     0.015266                       # mshr miss rate for WriteReq accesses (Ratio)
system.cpu0.dcache.WriteReq.mshrMissRate::total     0.015266                       # mshr miss rate for WriteReq accesses (Ratio)
system.cpu0.dcache.WriteReq.avgMshrMissLatency::cpu0.data 73753.189693                       # average WriteReq mshr miss latency ((Tick/Count))
system.cpu0.dcache.WriteReq.avgMshrMissLatency::total 73753.189693                       # average WriteReq mshr miss latency ((Tick/Count))
system.cpu0.dcache.power_state.pwrStateResidencyTicks::UNDEFINED  62393801064                       # Cumulative time (in ticks) in various power states (Tick)
system.cpu0.dcache.tags.tagsInUse         1023.165557                       # Average ticks per tags in use ((Tick/Count))
system.cpu0.dcache.tags.totalRefs            71113510                       # Total number of references to valid blocks. (Count)
system.cpu0.dcache.tags.sampledRefs           1763494                       # Sample count of references to valid blocks. (Count)
system.cpu0.dcache.tags.avgRefs             40.325348                       # Average number of references to valid blocks. ((Count/Count))
system.cpu0.dcache.tags.warmupTick             207060                       # The tick when the warmup percentage was hit. (Tick)
system.cpu0.dcache.tags.occupancies::cpu0.data  1023.165557                       # Average occupied blocks per tick, per requestor ((Count/Tick))
system.cpu0.dcache.tags.avgOccs::cpu0.data     0.999185                       # Average percentage of cache occupancy ((Ratio/Tick))
system.cpu0.dcache.tags.avgOccs::total       0.999185                       # Average percentage of cache occupancy ((Ratio/Tick))
system.cpu0.dcache.tags.occupanciesTaskId::1024         1024                       # Occupied blocks per task id (Count)
system.cpu0.dcache.tags.ageTaskId_1024::0           79                       # Occupied blocks per task id, per block age (Count)
system.cpu0.dcache.tags.ageTaskId_1024::1          796                       # Occupied blocks per task id, per block age (Count)
system.cpu0.dcache.tags.ageTaskId_1024::2          149                       # Occupied blocks per task id, per block age (Count)
system.cpu0.dcache.tags.ratioOccsTaskId::1024            1                       # Ratio of occupied blocks and all blocks, per task id (Ratio)
system.cpu0.dcache.tags.tagAccesses         596967758                       # Number of tag accesses (Count)
system.cpu0.dcache.tags.dataAccesses        596967758                       # Number of data accesses (Count)
system.cpu0.dcache.tags.power_state.pwrStateResidencyTicks::UNDEFINED  62393801064                       # Cumulative time (in ticks) in various power states (Tick)
system.cpu0.decode.idleCycles                15298456                       # Number of cycles decode is idle (Cycle)
system.cpu0.decode.blockedCycles            114310654                       # Number of cycles decode is blocked (Cycle)
system.cpu0.decode.runCycles                 17563710                       # Number of cycles decode is running (Cycle)
system.cpu0.decode.unblockCycles             19747000                       # Number of cycles decode is unblocking (Cycle)
system.cpu0.decode.squashCycles                376677                       # Number of cycles decode is squashing (Cycle)
system.cpu0.decode.branchResolved            14643405                       # Number of times decode resolved a branch (Count)
system.cpu0.decode.branchMispred                 3080                       # Number of times decode detected a branch misprediction (Count)
system.cpu0.decode.decodedInsts             262069898                       # Number of instructions handled by decode (Count)
system.cpu0.decode.squashedInsts                 6907                       # Number of squashed instructions handled by decode (Count)
system.cpu0.dtb_walker_cache.blockedCycles::no_mshrs            0                       # number of cycles access was blocked (Cycle)
system.cpu0.dtb_walker_cache.blockedCycles::no_targets            0                       # number of cycles access was blocked (Cycle)
system.cpu0.dtb_walker_cache.blockedCauses::no_mshrs            0                       # number of times access was blocked (Count)
system.cpu0.dtb_walker_cache.blockedCauses::no_targets            0                       # number of times access was blocked (Count)
system.cpu0.dtb_walker_cache.avgBlocked::no_mshrs          nan                       # average number of cycles each access was blocked ((Cycle/Count))
system.cpu0.dtb_walker_cache.avgBlocked::no_targets          nan                       # average number of cycles each access was blocked ((Cycle/Count))
system.cpu0.dtb_walker_cache.replacements            0                       # number of replacements (Count)
system.cpu0.dtb_walker_cache.power_state.pwrStateResidencyTicks::UNDEFINED  62393801064                       # Cumulative time (in ticks) in various power states (Tick)
system.cpu0.dtb_walker_cache.tags.tagsInUse            0                       # Average ticks per tags in use ((Tick/Count))
system.cpu0.dtb_walker_cache.tags.totalRefs            0                       # Total number of references to valid blocks. (Count)
system.cpu0.dtb_walker_cache.tags.sampledRefs            0                       # Sample count of references to valid blocks. (Count)
system.cpu0.dtb_walker_cache.tags.avgRefs          nan                       # Average number of references to valid blocks. ((Count/Count))
system.cpu0.dtb_walker_cache.tags.warmupTick            0                       # The tick when the warmup percentage was hit. (Tick)
system.cpu0.dtb_walker_cache.tags.tagAccesses            0                       # Number of tag accesses (Count)
system.cpu0.dtb_walker_cache.tags.dataAccesses            0                       # Number of data accesses (Count)
system.cpu0.dtb_walker_cache.tags.power_state.pwrStateResidencyTicks::UNDEFINED  62393801064                       # Cumulative time (in ticks) in various power states (Tick)
system.cpu0.fetch.icacheStallCycles          22303675                       # Number of cycles fetch is stalled on an Icache miss (Cycle)
system.cpu0.fetch.insts                     268126742                       # Number of instructions fetch has processed (Count)
system.cpu0.fetch.branches                   22525098                       # Number of branches that fetch encountered (Count)
system.cpu0.fetch.predictedBranches          15501707                       # Number of branches that fetch has predicted taken (Count)
system.cpu0.fetch.cycles                    144612996                       # Number of cycles fetch has run and was not squashing or blocked (Cycle)
system.cpu0.fetch.squashCycles                 759390                       # Number of cycles fetch has spent squashing (Cycle)
system.cpu0.fetch.miscStallCycles                   8                       # Number of cycles fetch has spent waiting on interrupts, or bad addresses, or out of MSHRs (Cycle)
system.cpu0.fetch.icacheWaitRetryStallCycles          123                       # Number of stall cycles due to full MSHR (Cycle)
system.cpu0.fetch.cacheLines                 22131062                       # Number of cache lines fetched (Count)
system.cpu0.fetch.icacheSquashes                92000                       # Number of outstanding Icache misses that were squashed (Count)
system.cpu0.fetch.nisnDist::samples         167296497                       # Number of instructions fetched each cycle (Total) (Count)
system.cpu0.fetch.nisnDist::mean             1.602713                       # Number of instructions fetched each cycle (Total) (Count)
system.cpu0.fetch.nisnDist::stdev            2.832002                       # Number of instructions fetched each cycle (Total) (Count)
system.cpu0.fetch.nisnDist::underflows              0      0.00%      0.00% # Number of instructions fetched each cycle (Total) (Count)
system.cpu0.fetch.nisnDist::0               117007611     69.94%     69.94% # Number of instructions fetched each cycle (Total) (Count)
system.cpu0.fetch.nisnDist::1                 6080204      3.63%     73.57% # Number of instructions fetched each cycle (Total) (Count)
system.cpu0.fetch.nisnDist::2                 4043103      2.42%     75.99% # Number of instructions fetched each cycle (Total) (Count)
system.cpu0.fetch.nisnDist::3                 4819483      2.88%     78.87% # Number of instructions fetched each cycle (Total) (Count)
system.cpu0.fetch.nisnDist::4                 4949527      2.96%     81.83% # Number of instructions fetched each cycle (Total) (Count)
system.cpu0.fetch.nisnDist::5                 4121577      2.46%     84.29% # Number of instructions fetched each cycle (Total) (Count)
system.cpu0.fetch.nisnDist::6                 4284528      2.56%     86.86% # Number of instructions fetched each cycle (Total) (Count)
system.cpu0.fetch.nisnDist::7                 2533502      1.51%     88.37% # Number of instructions fetched each cycle (Total) (Count)
system.cpu0.fetch.nisnDist::8                19456962     11.63%    100.00% # Number of instructions fetched each cycle (Total) (Count)
system.cpu0.fetch.nisnDist::overflows               0      0.00%    100.00% # Number of instructions fetched each cycle (Total) (Count)
system.cpu0.fetch.nisnDist::min_value               0                       # Number of instructions fetched each cycle (Total) (Count)
system.cpu0.fetch.nisnDist::max_value               8                       # Number of instructions fetched each cycle (Total) (Count)
system.cpu0.fetch.nisnDist::total           167296497                       # Number of instructions fetched each cycle (Total) (Count)
system.cpu0.fetch.branchRate                 0.134450                       # Number of branch fetches per cycle (Ratio)
system.cpu0.fetch.rate                       1.600426                       # Number of inst fetches per cycle ((Count/Cycle))
system.cpu0.icache.demandHits::cpu0.inst     22128358                       # number of demand (read+write) hits (Count)
system.cpu0.icache.demandHits::total         22128358                       # number of demand (read+write) hits (Count)
system.cpu0.icache.overallHits::cpu0.inst     22128358                       # number of overall hits (Count)
system.cpu0.icache.overallHits::total        22128358                       # number of overall hits (Count)
system.cpu0.icache.demandMisses::cpu0.inst         2704                       # number of demand (read+write) misses (Count)
system.cpu0.icache.demandMisses::total           2704                       # number of demand (read+write) misses (Count)
system.cpu0.icache.overallMisses::cpu0.inst         2704                       # number of overall misses (Count)
system.cpu0.icache.overallMisses::total          2704                       # number of overall misses (Count)
system.cpu0.icache.demandMissLatency::cpu0.inst    226097380                       # number of demand (read+write) miss ticks (Tick)
system.cpu0.icache.demandMissLatency::total    226097380                       # number of demand (read+write) miss ticks (Tick)
system.cpu0.icache.overallMissLatency::cpu0.inst    226097380                       # number of overall miss ticks (Tick)
system.cpu0.icache.overallMissLatency::total    226097380                       # number of overall miss ticks (Tick)
system.cpu0.icache.demandAccesses::cpu0.inst     22131062                       # number of demand (read+write) accesses (Count)
system.cpu0.icache.demandAccesses::total     22131062                       # number of demand (read+write) accesses (Count)
system.cpu0.icache.overallAccesses::cpu0.inst     22131062                       # number of overall (read+write) accesses (Count)
system.cpu0.icache.overallAccesses::total     22131062                       # number of overall (read+write) accesses (Count)
system.cpu0.icache.demandMissRate::cpu0.inst     0.000122                       # miss rate for demand accesses (Ratio)
system.cpu0.icache.demandMissRate::total     0.000122                       # miss rate for demand accesses (Ratio)
system.cpu0.icache.overallMissRate::cpu0.inst     0.000122                       # miss rate for overall accesses (Ratio)
system.cpu0.icache.overallMissRate::total     0.000122                       # miss rate for overall accesses (Ratio)
system.cpu0.icache.demandAvgMissLatency::cpu0.inst 83615.894970                       # average overall miss latency in ticks ((Tick/Count))
system.cpu0.icache.demandAvgMissLatency::total 83615.894970                       # average overall miss latency in ticks ((Tick/Count))
system.cpu0.icache.overallAvgMissLatency::cpu0.inst 83615.894970                       # average overall miss latency ((Tick/Count))
system.cpu0.icache.overallAvgMissLatency::total 83615.894970                       # average overall miss latency ((Tick/Count))
system.cpu0.icache.blockedCycles::no_mshrs         2172                       # number of cycles access was blocked (Cycle)
system.cpu0.icache.blockedCycles::no_targets            0                       # number of cycles access was blocked (Cycle)
system.cpu0.icache.blockedCauses::no_mshrs           21                       # number of times access was blocked (Count)
system.cpu0.icache.blockedCauses::no_targets            0                       # number of times access was blocked (Count)
system.cpu0.icache.avgBlocked::no_mshrs    103.428571                       # average number of cycles each access was blocked ((Cycle/Count))
system.cpu0.icache.avgBlocked::no_targets          nan                       # average number of cycles each access was blocked ((Cycle/Count))
system.cpu0.icache.writebacks::writebacks         1449                       # number of writebacks (Count)
system.cpu0.icache.writebacks::total             1449                       # number of writebacks (Count)
system.cpu0.icache.demandMshrHits::cpu0.inst          741                       # number of demand (read+write) MSHR hits (Count)
system.cpu0.icache.demandMshrHits::total          741                       # number of demand (read+write) MSHR hits (Count)
system.cpu0.icache.overallMshrHits::cpu0.inst          741                       # number of overall MSHR hits (Count)
system.cpu0.icache.overallMshrHits::total          741                       # number of overall MSHR hits (Count)
system.cpu0.icache.demandMshrMisses::cpu0.inst         1963                       # number of demand (read+write) MSHR misses (Count)
system.cpu0.icache.demandMshrMisses::total         1963                       # number of demand (read+write) MSHR misses (Count)
system.cpu0.icache.overallMshrMisses::cpu0.inst         1963                       # number of overall MSHR misses (Count)
system.cpu0.icache.overallMshrMisses::total         1963                       # number of overall MSHR misses (Count)
system.cpu0.icache.demandMshrMissLatency::cpu0.inst    173562331                       # number of demand (read+write) MSHR miss ticks (Tick)
system.cpu0.icache.demandMshrMissLatency::total    173562331                       # number of demand (read+write) MSHR miss ticks (Tick)
system.cpu0.icache.overallMshrMissLatency::cpu0.inst    173562331                       # number of overall MSHR miss ticks (Tick)
system.cpu0.icache.overallMshrMissLatency::total    173562331                       # number of overall MSHR miss ticks (Tick)
system.cpu0.icache.demandMshrMissRate::cpu0.inst     0.000089                       # mshr miss ratio for demand accesses (Ratio)
system.cpu0.icache.demandMshrMissRate::total     0.000089                       # mshr miss ratio for demand accesses (Ratio)
system.cpu0.icache.overallMshrMissRate::cpu0.inst     0.000089                       # mshr miss ratio for overall accesses (Ratio)
system.cpu0.icache.overallMshrMissRate::total     0.000089                       # mshr miss ratio for overall accesses (Ratio)
system.cpu0.icache.demandAvgMshrMissLatency::cpu0.inst 88416.877738                       # average overall mshr miss latency ((Tick/Count))
system.cpu0.icache.demandAvgMshrMissLatency::total 88416.877738                       # average overall mshr miss latency ((Tick/Count))
system.cpu0.icache.overallAvgMshrMissLatency::cpu0.inst 88416.877738                       # average overall mshr miss latency ((Tick/Count))
system.cpu0.icache.overallAvgMshrMissLatency::total 88416.877738                       # average overall mshr miss latency ((Tick/Count))
system.cpu0.icache.replacements                  1449                       # number of replacements (Count)
system.cpu0.icache.ReadReq.hits::cpu0.inst     22128358                       # number of ReadReq hits (Count)
system.cpu0.icache.ReadReq.hits::total       22128358                       # number of ReadReq hits (Count)
system.cpu0.icache.ReadReq.misses::cpu0.inst         2704                       # number of ReadReq misses (Count)
system.cpu0.icache.ReadReq.misses::total         2704                       # number of ReadReq misses (Count)
system.cpu0.icache.ReadReq.missLatency::cpu0.inst    226097380                       # number of ReadReq miss ticks (Tick)
system.cpu0.icache.ReadReq.missLatency::total    226097380                       # number of ReadReq miss ticks (Tick)
system.cpu0.icache.ReadReq.accesses::cpu0.inst     22131062                       # number of ReadReq accesses(hits+misses) (Count)
system.cpu0.icache.ReadReq.accesses::total     22131062                       # number of ReadReq accesses(hits+misses) (Count)
system.cpu0.icache.ReadReq.missRate::cpu0.inst     0.000122                       # miss rate for ReadReq accesses (Ratio)
system.cpu0.icache.ReadReq.missRate::total     0.000122                       # miss rate for ReadReq accesses (Ratio)
system.cpu0.icache.ReadReq.avgMissLatency::cpu0.inst 83615.894970                       # average ReadReq miss latency ((Tick/Count))
system.cpu0.icache.ReadReq.avgMissLatency::total 83615.894970                       # average ReadReq miss latency ((Tick/Count))
system.cpu0.icache.ReadReq.mshrHits::cpu0.inst          741                       # number of ReadReq MSHR hits (Count)
system.cpu0.icache.ReadReq.mshrHits::total          741                       # number of ReadReq MSHR hits (Count)
system.cpu0.icache.ReadReq.mshrMisses::cpu0.inst         1963                       # number of ReadReq MSHR misses (Count)
system.cpu0.icache.ReadReq.mshrMisses::total         1963                       # number of ReadReq MSHR misses (Count)
system.cpu0.icache.ReadReq.mshrMissLatency::cpu0.inst    173562331                       # number of ReadReq MSHR miss ticks (Tick)
system.cpu0.icache.ReadReq.mshrMissLatency::total    173562331                       # number of ReadReq MSHR miss ticks (Tick)
system.cpu0.icache.ReadReq.mshrMissRate::cpu0.inst     0.000089                       # mshr miss rate for ReadReq accesses (Ratio)
system.cpu0.icache.ReadReq.mshrMissRate::total     0.000089                       # mshr miss rate for ReadReq accesses (Ratio)
system.cpu0.icache.ReadReq.avgMshrMissLatency::cpu0.inst 88416.877738                       # average ReadReq mshr miss latency ((Tick/Count))
system.cpu0.icache.ReadReq.avgMshrMissLatency::total 88416.877738                       # average ReadReq mshr miss latency ((Tick/Count))
system.cpu0.icache.power_state.pwrStateResidencyTicks::UNDEFINED  62393801064                       # Cumulative time (in ticks) in various power states (Tick)
system.cpu0.icache.tags.tagsInUse          510.614959                       # Average ticks per tags in use ((Tick/Count))
system.cpu0.icache.tags.totalRefs            22130319                       # Total number of references to valid blocks. (Count)
system.cpu0.icache.tags.sampledRefs              1961                       # Sample count of references to valid blocks. (Count)
system.cpu0.icache.tags.avgRefs          11285.221316                       # Average number of references to valid blocks. ((Count/Count))
[...]
system.mem_ctrls.dram.perBankWrBursts::15        15441                       # Per bank write bursts (Count)
system.mem_ctrls.dram.totQLat              6904663900                       # Total ticks spent queuing (Tick)
system.mem_ctrls.dram.totBusLat            2187685000                       # Total ticks spent in databus transfers (Tick)
system.mem_ctrls.dram.totMemAccLat        15108482650                       # Total ticks spent from burst creation until serviced by the DRAM (Tick)
system.mem_ctrls.dram.avgQLat                15780.75                       # Average queueing delay per DRAM burst ((Tick/Count))
system.mem_ctrls.dram.avgBusLat               5000.00                       # Average bus latency per DRAM burst ((Tick/Count))
system.mem_ctrls.dram.avgMemAccLat           34530.75                       # Average memory access latency per DRAM burst ((Tick/Count))
system.mem_ctrls.dram.readRowHits              387718                       # Number of row buffer hits during reads (Count)
system.mem_ctrls.dram.writeRowHits             197014                       # Number of row buffer hits during writes (Count)
system.mem_ctrls.dram.readRowHitRate            88.61                       # Row buffer hit rate for reads (Ratio)
system.mem_ctrls.dram.writeRowHitRate           80.17                       # Row buffer hit rate for writes (Ratio)
system.mem_ctrls.dram.bytesPerActivate::samples        98537                       # Bytes accessed per row activation (Byte)
system.mem_ctrls.dram.bytesPerActivate::mean   443.780834                       # Bytes accessed per row activation (Byte)
system.mem_ctrls.dram.bytesPerActivate::gmean   288.991766                       # Bytes accessed per row activation (Byte)
system.mem_ctrls.dram.bytesPerActivate::stdev   354.774030                       # Bytes accessed per row activation (Byte)
system.mem_ctrls.dram.bytesPerActivate::0-127        21197     21.51%     21.51% # Bytes accessed per row activation (Byte)
system.mem_ctrls.dram.bytesPerActivate::128-255        17008     17.26%     38.77% # Bytes accessed per row activation (Byte)
system.mem_ctrls.dram.bytesPerActivate::256-383        11805     11.98%     50.75% # Bytes accessed per row activation (Byte)
system.mem_ctrls.dram.bytesPerActivate::384-511         9301      9.44%     60.19% # Bytes accessed per row activation (Byte)
system.mem_ctrls.dram.bytesPerActivate::512-639         9910     10.06%     70.25% # Bytes accessed per row activation (Byte)
system.mem_ctrls.dram.bytesPerActivate::640-767         4121      4.18%     74.43% # Bytes accessed per row activation (Byte)
system.mem_ctrls.dram.bytesPerActivate::768-895         3953      4.01%     78.44% # Bytes accessed per row activation (Byte)
system.mem_ctrls.dram.bytesPerActivate::896-1023         3717      3.77%     82.21% # Bytes accessed per row activation (Byte)
system.mem_ctrls.dram.bytesPerActivate::1024-1151        17525     17.79%    100.00% # Bytes accessed per row activation (Byte)
system.mem_ctrls.dram.bytesPerActivate::total        98537                       # Bytes accessed per row activation (Byte)
system.mem_ctrls.dram.bytesRead              28002368                       # Total bytes read (Byte)
system.mem_ctrls.dram.bytesWritten           15727360                       # Total bytes written (Byte)
system.mem_ctrls.dram.avgRdBW              448.800482                       # Average DRAM read bandwidth in MiBytes/s ((Byte/Second))
system.mem_ctrls.dram.avgWrBW              252.066066                       # Average DRAM write bandwidth in MiBytes/s ((Byte/Second))
system.mem_ctrls.dram.peakBW                 12800.00                       # Theoretical peak bandwidth in MiByte/s ((Byte/Second))
system.mem_ctrls.dram.busUtil                    5.48                       # Data bus utilization in percentage (Ratio)
system.mem_ctrls.dram.busUtilRead                3.51                       # Data bus utilization in percentage for reads (Ratio)
system.mem_ctrls.dram.busUtilWrite               1.97                       # Data bus utilization in percentage for writes (Ratio)
system.mem_ctrls.dram.pageHitRate               85.58                       # Row buffer hit rate, read and write combined (Ratio)
system.mem_ctrls.dram.power_state.pwrStateResidencyTicks::UNDEFINED  62393801064                       # Cumulative time (in ticks) in various power states (Tick)
system.mem_ctrls.dram.rank0.actEnergy       343683900                       # Energy for activate commands per rank (pJ) (Joule)
system.mem_ctrls.dram.rank0.preEnergy       182657145                       # Energy for precharge commands per rank (pJ) (Joule)
system.mem_ctrls.dram.rank0.readEnergy     1543182480                       # Energy for read commands per rank (pJ) (Joule)
system.mem_ctrls.dram.rank0.writeEnergy     631943640                       # Energy for write commands per rank (pJ) (Joule)
system.mem_ctrls.dram.rank0.refreshEnergy 4925110320.000001                       # Energy for refresh commands per rank (pJ) (Joule)
system.mem_ctrls.dram.rank0.actBackEnergy   9880672410                       # Energy for active background per rank (pJ) (Joule)
system.mem_ctrls.dram.rank0.preBackEnergy  15638653440                       # Energy for precharge background per rank (pJ) (Joule)
system.mem_ctrls.dram.rank0.actPowerDownEnergy            0                       # Energy for active power-down per rank (pJ) (Joule)
system.mem_ctrls.dram.rank0.prePowerDownEnergy            0                       # Energy for precharge power-down per rank (pJ) (Joule)
system.mem_ctrls.dram.rank0.selfRefreshEnergy            0                       # Energy for self refresh per rank (pJ) (Joule)
system.mem_ctrls.dram.rank0.totalEnergy   33145903335                       # Total energy per rank (pJ) (Joule)
system.mem_ctrls.dram.rank0.averagePower   531.237122                       # Core power per rank (mW) (Watt)
system.mem_ctrls.dram.rank0.totalIdleTime            0                       # Total Idle time Per DRAM Rank (Tick)
system.mem_ctrls.dram.rank0.pwrStateTime::IDLE  40491644581                       # Time in different power states (Tick)
system.mem_ctrls.dram.rank0.pwrStateTime::REF   2083380000                       # Time in different power states (Tick)
system.mem_ctrls.dram.rank0.pwrStateTime::SREF            0                       # Time in different power states (Tick)
system.mem_ctrls.dram.rank0.pwrStateTime::PRE_PDN            0                       # Time in different power states (Tick)
system.mem_ctrls.dram.rank0.pwrStateTime::ACT  19818776483                       # Time in different power states (Tick)
system.mem_ctrls.dram.rank0.pwrStateTime::ACT_PDN            0                       # Time in different power states (Tick)
system.mem_ctrls.dram.rank1.actEnergy       359927400                       # Energy for activate commands per rank (pJ) (Joule)
system.mem_ctrls.dram.rank1.preEnergy       191290770                       # Energy for precharge commands per rank (pJ) (Joule)
system.mem_ctrls.dram.rank1.readEnergy     1580831700                       # Energy for read commands per rank (pJ) (Joule)
system.mem_ctrls.dram.rank1.writeEnergy     650819160                       # Energy for write commands per rank (pJ) (Joule)
system.mem_ctrls.dram.rank1.refreshEnergy 4925110320.000001                       # Energy for refresh commands per rank (pJ) (Joule)
system.mem_ctrls.dram.rank1.actBackEnergy   9830934780                       # Energy for active background per rank (pJ) (Joule)
system.mem_ctrls.dram.rank1.preBackEnergy  15680537760                       # Energy for precharge background per rank (pJ) (Joule)
system.mem_ctrls.dram.rank1.actPowerDownEnergy            0                       # Energy for active power-down per rank (pJ) (Joule)
system.mem_ctrls.dram.rank1.prePowerDownEnergy            0                       # Energy for precharge power-down per rank (pJ) (Joule)
system.mem_ctrls.dram.rank1.selfRefreshEnergy            0                       # Energy for self refresh per rank (pJ) (Joule)
system.mem_ctrls.dram.rank1.totalEnergy   33219451890                       # Total energy per rank (pJ) (Joule)
system.mem_ctrls.dram.rank1.averagePower   532.415902                       # Core power per rank (mW) (Watt)
system.mem_ctrls.dram.rank1.totalIdleTime            0                       # Total Idle time Per DRAM Rank (Tick)
system.mem_ctrls.dram.rank1.pwrStateTime::IDLE  40592496287                       # Time in different power states (Tick)
system.mem_ctrls.dram.rank1.pwrStateTime::REF   2083380000                       # Time in different power states (Tick)
system.mem_ctrls.dram.rank1.pwrStateTime::SREF            0                       # Time in different power states (Tick)
system.mem_ctrls.dram.rank1.pwrStateTime::PRE_PDN            0                       # Time in different power states (Tick)
system.mem_ctrls.dram.rank1.pwrStateTime::ACT  19717924777                       # Time in different power states (Tick)
system.mem_ctrls.dram.rank1.pwrStateTime::ACT_PDN            0                       # Time in different power states (Tick)
system.mem_ctrls.power_state.pwrStateResidencyTicks::UNDEFINED  62393801064                       # Cumulative time (in ticks) in various power states (Tick)
system.membus.transDist::ReadResp              185384                       # Transaction distribution (Count)
system.membus.transDist::WritebackDirty        245762                       # Transaction distribution (Count)
system.membus.transDist::CleanEvict             92802                       # Transaction distribution (Count)
system.membus.transDist::UpgradeReq               407                       # Transaction distribution (Count)
system.membus.transDist::SCUpgradeReq             150                       # Transaction distribution (Count)
system.membus.transDist::ReadExReq             252209                       # Transaction distribution (Count)
system.membus.transDist::ReadExResp            252158                       # Transaction distribution (Count)
system.membus.transDist::ReadSharedReq         185385                       # Transaction distribution (Count)
system.membus.transDist::InvalidateReq          10213                       # Transaction distribution (Count)
system.membus.pktCount_system.l3.mem_side_port::system.mem_ctrls.port      1224470                       # Packet count per connected requestor and responder (Count)
system.membus.pktCount::total                 1224470                       # Packet count per connected requestor and responder (Count)
system.membus.pktSize_system.l3.mem_side_port::system.mem_ctrls.port     43731456                       # Cumulative packet size per connected requestor and responder (Byte)
system.membus.pktSize::total                 43731456                       # Cumulative packet size per connected requestor and responder (Byte)
system.membus.snoops                              572                       # Total snoops (Count)
system.membus.snoopTraffic                          0                       # Total snoop traffic (Byte)
system.membus.snoopFanout::samples             448364                       # Request fanout histogram (Count)
system.membus.snoopFanout::mean                     0                       # Request fanout histogram (Count)
system.membus.snoopFanout::stdev                    0                       # Request fanout histogram (Count)
system.membus.snoopFanout::underflows               0      0.00%      0.00% # Request fanout histogram (Count)
system.membus.snoopFanout::0                   448364    100.00%    100.00% # Request fanout histogram (Count)
system.membus.snoopFanout::1                        0      0.00%    100.00% # Request fanout histogram (Count)
system.membus.snoopFanout::overflows                0      0.00%    100.00% # Request fanout histogram (Count)
system.membus.snoopFanout::min_value                0                       # Request fanout histogram (Count)
system.membus.snoopFanout::max_value                0                       # Request fanout histogram (Count)
system.membus.snoopFanout::total               448364                       # Request fanout histogram (Count)
system.membus.power_state.pwrStateResidencyTicks::UNDEFINED  62393801064                       # Cumulative time (in ticks) in various power states (Tick)
system.membus.reqLayer0.occupancy          2222233763                       # Layer occupancy (ticks) (Tick)
system.membus.reqLayer0.utilization               0.0                       # Layer utilization (Ratio)
system.membus.respLayer1.occupancy         2296172161                       # Layer occupancy (ticks) (Tick)
system.membus.respLayer1.utilization              0.0                       # Layer utilization (Ratio)
system.membus.snoop_filter.totRequests         786928                       # Total number of requests made to the snoop filter. (Count)
system.membus.snoop_filter.hitSingleRequests       339371                       # Number of requests hitting in the snoop filter with a single holder of the requested data. (Count)
system.membus.snoop_filter.hitMultiRequests            0                       # Number of requests hitting in the snoop filter with multiple (>1) holders of the requested data. (Count)
system.membus.snoop_filter.totSnoops                0                       # Total number of snoops made to the snoop filter. (Count)
system.membus.snoop_filter.hitSingleSnoops            0                       # Number of snoops hitting in the snoop filter with a single holder of the requested data. (Count)
system.membus.snoop_filter.hitMultiSnoops            0                       # Number of snoops hitting in the snoop filter with multiple (>1) holders of the requested data. (Count)
system.tollcbus.transDist::ReadResp            260566                       # Transaction distribution (Count)
system.tollcbus.transDist::WritebackDirty       614276                       # Transaction distribution (Count)
system.tollcbus.transDist::CleanEvict          246804                       # Transaction distribution (Count)
system.tollcbus.transDist::UpgradeReq             736                       # Transaction distribution (Count)
system.tollcbus.transDist::SCUpgradeReq           203                       # Transaction distribution (Count)
system.tollcbus.transDist::UpgradeResp            939                       # Transaction distribution (Count)
system.tollcbus.transDist::SCUpgradeFailReq            3                       # Transaction distribution (Count)
system.tollcbus.transDist::UpgradeFailResp            3                       # Transaction distribution (Count)
system.tollcbus.transDist::ReadExReq           262763                       # Transaction distribution (Count)
system.tollcbus.transDist::ReadExResp          262763                       # Transaction distribution (Count)
system.tollcbus.transDist::ReadSharedReq       260567                       # Transaction distribution (Count)
system.tollcbus.transDist::InvalidateReq        10446                       # Transaction distribution (Count)
system.tollcbus.transDist::InvalidateResp        10446                       # Transaction distribution (Count)
system.tollcbus.pktCount_system.cpu0.l2.mem_side_port::system.l3.cpu_side_port      1276507                       # Packet count per connected requestor and responder (Count)
system.tollcbus.pktCount_system.cpu1.l2.mem_side_port::system.l3.cpu_side_port       240602                       # Packet count per connected requestor and responder (Count)
system.tollcbus.pktCount::total               1517109                       # Packet count per connected requestor and responder (Count)
system.tollcbus.pktSize_system.cpu0.l2.mem_side_port::system.l3.cpu_side_port     46904256                       # Cumulative packet size per connected requestor and responder (Byte)
system.tollcbus.pktSize_system.cpu1.l2.mem_side_port::system.l3.cpu_side_port      8975808                       # Cumulative packet size per connected requestor and responder (Byte)
system.tollcbus.pktSize::total               55880064                       # Cumulative packet size per connected requestor and responder (Byte)
system.tollcbus.snoops                         413406                       # Total snoops (Count)
system.tollcbus.snoopTraffic                 16926848                       # Total snoop traffic (Byte)
system.tollcbus.snoopFanout::samples           928883                       # Request fanout histogram (Count)
system.tollcbus.snoopFanout::mean            0.089318                       # Request fanout histogram (Count)
system.tollcbus.snoopFanout::stdev           0.288680                       # Request fanout histogram (Count)
system.tollcbus.snoopFanout::underflows             0      0.00%      0.00% # Request fanout histogram (Count)
system.tollcbus.snoopFanout::0                 846844     91.17%     91.17% # Request fanout histogram (Count)
system.tollcbus.snoopFanout::1                  81112      8.73%     99.90% # Request fanout histogram (Count)
system.tollcbus.snoopFanout::2                    927      0.10%    100.00% # Request fanout histogram (Count)
system.tollcbus.snoopFanout::overflows              0      0.00%    100.00% # Request fanout histogram (Count)
system.tollcbus.snoopFanout::min_value              0                       # Request fanout histogram (Count)
system.tollcbus.snoopFanout::max_value              2                       # Request fanout histogram (Count)
system.tollcbus.snoopFanout::total             928883                       # Request fanout histogram (Count)
system.tollcbus.power_state.pwrStateResidencyTicks::UNDEFINED  62393801064                       # Cumulative time (in ticks) in various power states (Tick)
system.tollcbus.reqLayer0.occupancy         620702691                       # Layer occupancy (ticks) (Tick)
system.tollcbus.reqLayer0.utilization             0.0                       # Layer utilization (Ratio)
system.tollcbus.respLayer0.occupancy        464911744                       # Layer occupancy (ticks) (Tick)
system.tollcbus.respLayer0.utilization            0.0                       # Layer utilization (Ratio)
system.tollcbus.respLayer1.occupancy         99684350                       # Layer occupancy (ticks) (Tick)
system.tollcbus.respLayer1.utilization            0.0                       # Layer utilization (Ratio)
system.tollcbus.snoop_filter.totRequests      1001633                       # Total number of requests made to the snoop filter. (Count)
system.tollcbus.snoop_filter.hitSingleRequests       484988                       # Number of requests hitting in the snoop filter with a single holder of the requested data. (Count)
system.tollcbus.snoop_filter.hitMultiRequests         3987                       # Number of requests hitting in the snoop filter with multiple (>1) holders of the requested data. (Count)
system.tollcbus.snoop_filter.totSnoops          60010                       # Total number of snoops made to the snoop filter. (Count)
system.tollcbus.snoop_filter.hitSingleSnoops        59083                       # Number of snoops hitting in the snoop filter with a single holder of the requested data. (Count)
system.tollcbus.snoop_filter.hitMultiSnoops          927                       # Number of snoops hitting in the snoop filter with multiple (>1) holders of the requested data. (Count)
system.voltage_domain.voltage                       1                       # Voltage in Volts (Volt)
system.workload.inst.arm                            0                       # number of arm instructions executed (Count)
system.workload.inst.quiesce                        0                       # number of quiesce instructions executed (Count)

---------- End Simulation Statistics   ----------
